BACE_51.smi:1
 OpenBabel09301813003D
Structure written by MMmdl.
 79 81  0  0  1  0  0  0  0  0999 V2000
   26.0274   46.2164  -13.9831 C   0  0  0  0  0  0  0  0  0  0  0  0
   26.4891   46.1142  -12.5200 C   0  0  0  0  0  0  0  0  0  0  0  0
   27.6759   47.0465  -12.2293 C   0  0  0  0  0  0  0  0  0  0  0  0
   26.7934   44.6693  -12.1423 C   0  0  0  0  0  0  0  0  0  0  0  0
   27.8344   43.9685  -12.7857 C   0  0  0  0  0  0  0  0  0  0  0  0
   28.1024   42.6304  -12.4415 C   0  0  0  0  0  0  0  0  0  0  0  0
   27.3088   41.9801  -11.4791 C   0  0  0  0  0  0  0  0  0  0  0  0
   26.2564   42.6648  -10.8374 C   0  0  0  0  0  0  0  0  0  0  0  0
   25.3899   41.9393   -9.8196 C   0  0  0  0  0  0  0  0  0  0  0  0
   24.1806   41.3638  -10.4401 N   0  3  0  0  0  0  0  0  0  0  0  0
   23.0903   42.3215  -10.7406 C   0  0  0  0  0  0  0  0  0  0  0  0
   21.9249   42.2459   -9.7253 C   0  0  1  0  0  0  0  0  0  0  0  0
   21.0742   43.3521   -9.9386 O   0  0  0  0  0  0  0  0  0  0  0  0
   21.0573   40.9472   -9.7383 C   0  0  2  0  0  0  0  0  0  0  0  0
   21.6061   39.8833   -8.7666 C   0  0  0  0  0  0  0  0  0  0  0  0
   21.1905   40.1160   -7.2970 C   0  0  2  0  0  0  0  0  0  0  0  0
   22.0782   39.2978   -6.3484 C   0  0  0  0  0  0  0  0  0  0  0  0
   19.6879   39.8717   -7.0241 C   0  0  0  0  0  0  0  0  0  0  0  0
   19.1549   38.5284   -7.5505 C   0  0  0  0  0  0  0  0  0  0  0  0
   17.7625   38.1325   -7.0360 C   0  0  0  0  0  0  0  0  0  0  0  0
   16.5716   38.8111   -7.7277 C   0  0  0  0  0  0  0  0  0  0  0  0
   16.1649   40.1612   -7.1193 C   0  0  0  0  0  0  0  0  0  0  0  0
   14.8644   40.7315   -7.7001 C   0  0  0  0  0  0  0  0  0  0  0  0
   15.0558   41.5616   -8.9753 C   0  0  0  0  0  0  0  0  0  0  0  0
   15.7298   40.7742   -9.9457 O   0  0  0  0  0  0  0  0  0  0  0  0
   16.6825   41.4126  -10.6950 C   0  0  0  0  0  0  0  0  0  0  0  0
   17.8929   40.7533  -10.9666 C   0  0  0  0  0  0  0  0  0  0  0  0
   18.8684   41.4184  -11.7301 C   0  0  0  0  0  0  0  0  0  0  0  0
   18.5661   42.7050  -12.2158 C   0  0  0  0  0  0  0  0  0  0  0  0
   17.3382   43.2943  -11.8752 C   0  0  0  0  0  0  0  0  0  0  0  0
   16.9924   44.8862  -12.4401 Cl  0  0  0  0  0  0  0  0  0  0  0  0
   16.4043   42.6593  -11.1424 N   0  0  0  0  0  0  0  0  0  0  0  0
   20.1671   40.7505  -12.0706 C   0  0  0  0  0  0  0  0  0  0  0  0
   20.4603   40.5504  -13.2400 O   0  0  0  0  0  0  0  0  0  0  0  0
   20.9882   40.3689  -11.0804 N   0  0  0  0  0  0  0  0  0  0  0  0
   26.0195   44.0194  -11.1560 C   0  0  0  0  0  0  0  0  0  0  0  0
   22.3330   42.3988   -8.7259 H   0  0  0  0  0  0  0  0  0  0  0  0
   20.0479   41.1870   -9.4053 H   0  0  0  0  0  0  0  0  0  0  0  0
   21.3799   41.1608   -7.0448 H   0  0  0  0  0  0  0  0  0  0  0  0
   25.1457   45.5977  -14.1588 H   0  0  0  0  0  0  0  0  0  0  0  0
   26.8062   45.8922  -14.6725 H   0  0  0  0  0  0  0  0  0  0  0  0
   25.7645   47.2429  -14.2417 H   0  0  0  0  0  0  0  0  0  0  0  0
   25.6567   46.4535  -11.8998 H   0  0  0  0  0  0  0  0  0  0  0  0
   27.9509   47.0105  -11.1752 H   0  0  0  0  0  0  0  0  0  0  0  0
   27.4281   48.0803  -12.4687 H   0  0  0  0  0  0  0  0  0  0  0  0
   28.5546   46.7752  -12.8132 H   0  0  0  0  0  0  0  0  0  0  0  0
   28.4418   44.4545  -13.5349 H   0  0  0  0  0  0  0  0  0  0  0  0
   28.9057   42.0953  -12.9292 H   0  0  0  0  0  0  0  0  0  0  0  0
   27.5190   40.9494  -11.2382 H   0  0  0  0  0  0  0  0  0  0  0  0
   25.9589   41.1041   -9.4092 H   0  0  0  0  0  0  0  0  0  0  0  0
   25.1316   42.5932   -8.9835 H   0  0  0  0  0  0  0  0  0  0  0  0
   24.4614   40.9508  -11.3259 H   0  0  0  0  0  0  0  0  0  0  0  0
   23.4771   43.3374  -10.7784 H   0  0  0  0  0  0  0  0  0  0  0  0
   22.7424   42.1354  -11.7554 H   0  0  0  0  0  0  0  0  0  0  0  0
   20.4351   43.3848   -9.2406 H   0  0  0  0  0  0  0  0  0  0  0  0
   21.2989   38.8855   -9.0833 H   0  0  0  0  0  0  0  0  0  0  0  0
   22.6920   39.8545   -8.8258 H   0  0  0  0  0  0  0  0  0  0  0  0
   22.0317   38.2304   -6.5682 H   0  0  0  0  0  0  0  0  0  0  0  0
   21.7889   39.4370   -5.3048 H   0  0  0  0  0  0  0  0  0  0  0  0
   23.1180   39.6126   -6.4410 H   0  0  0  0  0  0  0  0  0  0  0  0
   19.5157   39.9217   -5.9488 H   0  0  0  0  0  0  0  0  0  0  0  0
   19.1030   40.6836   -7.4507 H   0  0  0  0  0  0  0  0  0  0  0  0
   19.1406   38.5183   -8.6396 H   0  0  0  0  0  0  0  0  0  0  0  0
   19.8503   37.7502   -7.2486 H   0  0  0  0  0  0  0  0  0  0  0  0
   17.6634   37.0673   -7.2409 H   0  0  0  0  0  0  0  0  0  0  0  0
   17.6924   38.2309   -5.9513 H   0  0  0  0  0  0  0  0  0  0  0  0
   16.7640   38.8876   -8.7953 H   0  0  0  0  0  0  0  0  0  0  0  0
   15.7133   38.1440   -7.6342 H   0  0  0  0  0  0  0  0  0  0  0  0
   16.0151   40.0187   -6.0452 H   0  0  0  0  0  0  0  0  0  0  0  0
   16.9586   40.8996   -7.2280 H   0  0  0  0  0  0  0  0  0  0  0  0
   14.1318   39.9358   -7.8483 H   0  0  0  0  0  0  0  0  0  0  0  0
   14.4601   41.3999   -6.9485 H   0  0  0  0  0  0  0  0  0  0  0  0
   14.0925   41.8885   -9.3684 H   0  0  0  0  0  0  0  0  0  0  0  0
   15.6177   42.4584   -8.7079 H   0  0  0  0  0  0  0  0  0  0  0  0
   18.0634   39.7549  -10.5934 H   0  0  0  0  0  0  0  0  0  0  0  0
   19.2598   43.2514  -12.8276 H   0  0  0  0  0  0  0  0  0  0  0  0
   21.7744   39.8109  -11.3727 H   0  0  0  0  0  0  0  0  0  0  0  0
   25.2261   44.5518  -10.6507 H   0  0  0  0  0  0  0  0  0  0  0  0
   23.8241   40.6198   -9.8546 H   0  0  0  0  0  0  0  0  0  0  0  0
  1  2  1  0  0  0  0
  1 40  1  0  0  0  0
  1 41  1  0  0  0  0
  1 42  1  0  0  0  0
  2  3  1  0  0  0  0
  2  4  1  0  0  0  0
  2 43  1  0  0  0  0
  3 44  1  0  0  0  0
  3 45  1  0  0  0  0
  3 46  1  0  0  0  0
  4 36  1  0  0  0  0
  4  5  2  0  0  0  0
  5  6  1  0  0  0  0
  5 47  1  0  0  0  0
  6  7  2  0  0  0  0
  6 48  1  0  0  0  0
  7  8  1  0  0  0  0
  7 49  1  0  0  0  0
  8  9  1  0  0  0  0
  8 36  2  0  0  0  0
  9 10  1  0  0  0  0
  9 50  1  0  0  0  0
  9 51  1  0  0  0  0
 10 11  1  0  0  0  0
 10 52  1  0  0  0  0
 10 79  1  0  0  0  0
 11 12  1  0  0  0  0
 11 53  1  0  0  0  0
 11 54  1  0  0  0  0
 12 37  1  1  0  0  0
 12 13  1  0  0  0  0
 12 14  1  0  0  0  0
 13 55  1  0  0  0  0
 14 38  1  1  0  0  0
 14 35  1  0  0  0  0
 14 15  1  0  0  0  0
 15 16  1  0  0  0  0
 15 56  1  0  0  0  0
 15 57  1  0  0  0  0
 16 39  1  1  0  0  0
 16 17  1  0  0  0  0
 16 18  1  0  0  0  0
 17 58  1  0  0  0  0
 17 59  1  0  0  0  0
 17 60  1  0  0  0  0
 18 19  1  0  0  0  0
 18 61  1  0  0  0  0
 18 62  1  0  0  0  0
 19 20  1  0  0  0  0
 19 63  1  0  0  0  0
 19 64  1  0  0  0  0
 20 21  1  0  0  0  0
 20 65  1  0  0  0  0
 20 66  1  0  0  0  0
 21 22  1  0  0  0  0
 21 67  1  0  0  0  0
 21 68  1  0  0  0  0
 22 23  1  0  0  0  0
 22 69  1  0  0  0  0
 22 70  1  0  0  0  0
 23 24  1  0  0  0  0
 23 71  1  0  0  0  0
 23 72  1  0  0  0  0
 24 25  1  0  0  0  0
 24 73  1  0  0  0  0
 24 74  1  0  0  0  0
 25 26  1  0  0  0  0
 26 32  1  0  0  0  0
 26 27  2  0  0  0  0
 27 28  1  0  0  0  0
 27 75  1  0  0  0  0
 28 29  2  0  0  0  0
 28 33  1  0  0  0  0
 29 30  1  0  0  0  0
 29 76  1  0  0  0  0
 30 31  1  0  0  0  0
 30 32  2  0  0  0  0
 33 34  2  0  0  0  0
 33 35  1  0  0  0  0
 35 77  1  0  0  0  0
 36 78  1  0  0  0  0
M  CHG  1  10   1
M  END
>  <s_m_source_file>
BACE_51.smi

>  <i_m_source_file_index>
1

>  <i_lp_mmshare_version>
42013

>  <i_f3d_flags>
0

>  <s_epik_input>
W0NIM11bQ0hdKFtDSDNdKWMxW2NIXVtjSF1bY0hdYyhbY0hdMSlbQ0gyXVtOSF1bQ0gyXVtDQEBIXShbT0hdKVtDQEBIXShbTkhdQyg9TyljKFtjSF1jMjMpW2NIXWMoQ2wpbjMpW0NIMl1bQ0BIXShbQ0gzXSlbQ0gyXVtDSDJdW0NIMl1bQ0gyXVtDSDJdW0NIMl1bQ0gyXU8y

>  <s_epik_cmdline>
J2VwaWtfcHl0aG9uJywgJy1waCcsICc3LjAnLCAnLXRuJywgJzgnLCAnLW1hJywgJzIwMCcsICctaW1hZScsICc8aW5maWxlLm1hZT4nLCAnLW9tYWUnLCAnPG91dGZpbGUubWFlPic=

>  <r_lp_tautomer_probability>
1

>  <r_epik_Ionization_Penalty>
0.0173

>  <r_epik_Ionization_Penalty_Charging>
0.0173

>  <r_epik_Ionization_Penalty_Neutral>
0.0000

>  <r_epik_State_Penalty>
0.0137

>  <r_epik_Charging_Adjusted_Penalty>
0.0310503

>  <i_epik_Tot_Q>
1

>  <i_epik_Tot_abs_Q>
1

>  <s_lp_Force_Field>
OPLS_2005

>  <r_lp_Energy>
33.0174

>  <b_lp_Chiralities_Consistent>
1

>  <s_lp_Variant>
BACE_51.smi:1-1

>  <chiral flag>
1

>  <version>
0

>  <s_i_glide_gridfile>
second_dock_grid_2

>  <i_i_glide_lignum>
10

>  <i_i_glide_rotatable_bonds>
7

>  <r_i_docking_score>
-3.32859

>  <r_i_glide_ligand_efficiency>
-0.0924609

>  <r_i_glide_ligand_efficiency_sa>
-0.305299

>  <r_i_glide_ligand_efficiency_ln>
-0.726209

>  <r_glide_XP_GScore>
-3.34229

>  <r_i_glide_gscore>
-3.34229

>  <r_i_glide_evdw>
-38.9541

>  <r_i_glide_ecoul>
-10.4808

>  <r_i_glide_energy>
-49.4348

>  <r_i_glide_einternal>
6.81587

>  <r_i_glide_emodel>
-64.2076

>  <r_glide_XP_HBond>
0

>  <i_i_glide_confnum>
1

>  <i_i_glide_posenum>
3

>  <r_i_glide_eff_state_penalty>
0.0137

>  <i_glide_XP_PoseRank>
1

$$$$
