BACE_14.smi:1
 OpenBabel09301813003D
Structure written by MMmdl.
 86 90  0  0  1  0  0  0  0  0999 V2000
   21.6479   39.2445   -6.4468 C   0  0  0  0  0  0  0  0  0  0  0  0
   20.9120   40.1145   -7.4702 C   0  0  0  0  0  0  0  0  0  0  0  0
   21.8735   40.6539   -8.5432 C   0  0  0  0  0  0  0  0  0  0  0  0
   19.7224   39.3742   -8.0722 C   0  0  0  0  0  0  0  0  0  0  0  0
   18.4113   39.6770   -7.6427 C   0  0  0  0  0  0  0  0  0  0  0  0
   17.2758   39.0616   -8.2345 C   0  0  0  0  0  0  0  0  0  0  0  0
   17.5032   38.0814   -9.2252 C   0  0  0  0  0  0  0  0  0  0  0  0
   18.8047   37.7495   -9.6394 C   0  0  0  0  0  0  0  0  0  0  0  0
   19.9135   38.4005   -9.0734 C   0  0  0  0  0  0  0  0  0  0  0  0
   15.8470   39.4459   -7.8680 C   0  0  0  0  0  0  0  0  0  0  0  0
   14.8636   38.3632   -7.5270 C   0  0  0  0  0  0  0  0  0  0  0  0
   14.6505   39.1856   -8.7718 C   0  0  0  0  0  0  0  0  0  0  0  0
   15.6769   40.6424   -7.0020 N   0  3  0  0  0  0  0  0  0  0  0  0
   15.8210   41.9987   -7.6079 C   0  0  0  0  0  0  0  0  0  0  0  0
   16.4699   42.1166   -9.0216 C   0  0  1  0  0  0  0  0  0  0  0  0
   15.4347   42.0378   -9.9880 O   0  0  0  0  0  0  0  0  0  0  0  0
   17.2594   43.4283   -9.2556 C   0  0  2  0  0  0  0  0  0  0  0  0
   17.9221   43.4402  -10.6616 C   0  0  0  0  0  0  0  0  0  0  0  0
   19.0570   44.4369  -10.8428 C   0  0  0  0  0  0  0  0  0  0  0  0
   20.3903   44.0520  -10.5832 C   0  0  0  0  0  0  0  0  0  0  0  0
   21.4518   44.9671  -10.7183 C   0  0  0  0  0  0  0  0  0  0  0  0
   21.1603   46.2889  -11.1442 C   0  0  0  0  0  0  0  0  0  0  0  0
   19.8329   46.6728  -11.4186 C   0  0  0  0  0  0  0  0  0  0  0  0
   18.7814   45.7516  -11.2655 C   0  0  0  0  0  0  0  0  0  0  0  0
   22.7160   44.4996  -10.4180 O   0  0  0  0  0  0  0  0  0  0  0  0
   23.8312   45.3820  -10.4867 C   0  0  0  0  0  0  0  0  0  0  0  0
   23.9103   46.2872   -9.2417 C   0  0  0  0  0  0  0  0  0  0  0  0
   24.2996   45.5142   -7.9675 C   0  0  0  0  0  0  0  0  0  0  0  0
   24.2058   46.3630   -6.6836 C   0  0  0  0  0  0  0  0  0  0  0  0
   22.8376   46.7685   -6.3680 N   0  0  0  0  0  0  0  0  0  0  0  0
   21.9097   45.7411   -6.1435 C   0  0  0  0  0  0  0  0  0  0  0  0
   22.2025   44.6577   -5.2878 C   0  0  0  0  0  0  0  0  0  0  0  0
   21.2772   43.6025   -5.1213 C   0  0  0  0  0  0  0  0  0  0  0  0
   20.0622   43.6351   -5.8453 C   0  0  0  0  0  0  0  0  0  0  0  0
   19.7669   44.7089   -6.7092 C   0  0  0  0  0  0  0  0  0  0  0  0
   20.6807   45.7762   -6.8293 C   0  0  0  0  0  0  0  0  0  0  0  0
   18.5073   44.7253   -7.5180 C   0  0  0  0  0  0  0  0  0  0  0  0
   17.8135   45.7399   -7.5881 O   0  0  0  0  0  0  0  0  0  0  0  0
   18.2765   43.5996   -8.2116 N   0  0  0  0  0  0  0  0  0  0  0  0
   21.5740   42.4551   -4.2170 C   0  0  0  0  0  0  0  0  0  0  0  0
   22.8308   42.5301   -3.3558 C   0  0  0  0  0  0  0  0  0  0  0  0
   20.8599   41.4577   -4.1240 O   0  0  0  0  0  0  0  0  0  0  0  0
   17.1689   41.3158   -9.2283 H   0  0  0  0  0  0  0  0  0  0  0  0
   16.5628   44.2673   -9.2035 H   0  0  0  0  0  0  0  0  0  0  0  0
   22.4788   39.7904   -5.9987 H   0  0  0  0  0  0  0  0  0  0  0  0
   22.0438   38.3379   -6.9067 H   0  0  0  0  0  0  0  0  0  0  0  0
   20.9744   38.9521   -5.6430 H   0  0  0  0  0  0  0  0  0  0  0  0
   20.5220   40.9830   -6.9404 H   0  0  0  0  0  0  0  0  0  0  0  0
   22.6332   41.2933   -8.0915 H   0  0  0  0  0  0  0  0  0  0  0  0
   21.3425   41.2469   -9.2869 H   0  0  0  0  0  0  0  0  0  0  0  0
   22.3924   39.8480   -9.0648 H   0  0  0  0  0  0  0  0  0  0  0  0
   18.2922   40.4210   -6.8704 H   0  0  0  0  0  0  0  0  0  0  0  0
   16.6813   37.5631   -9.6909 H   0  0  0  0  0  0  0  0  0  0  0  0
   18.9408   37.0010  -10.4075 H   0  0  0  0  0  0  0  0  0  0  0  0
   20.9066   38.1382   -9.4099 H   0  0  0  0  0  0  0  0  0  0  0  0
   15.2550   37.3552   -7.6401 H   0  0  0  0  0  0  0  0  0  0  0  0
   14.1740   38.5212   -6.6979 H   0  0  0  0  0  0  0  0  0  0  0  0
   13.8015   39.8610   -8.7442 H   0  0  0  0  0  0  0  0  0  0  0  0
   14.8013   38.6882   -9.7251 H   0  0  0  0  0  0  0  0  0  0  0  0
   16.3669   40.5712   -6.2647 H   0  0  0  0  0  0  0  0  0  0  0  0
   16.4156   42.5461   -6.8751 H   0  0  0  0  0  0  0  0  0  0  0  0
   14.8424   42.4791   -7.6324 H   0  0  0  0  0  0  0  0  0  0  0  0
   15.0048   41.1975   -9.9109 H   0  0  0  0  0  0  0  0  0  0  0  0
   18.3244   42.4541  -10.8874 H   0  0  0  0  0  0  0  0  0  0  0  0
   17.1659   43.6259  -11.4234 H   0  0  0  0  0  0  0  0  0  0  0  0
   20.6041   43.0457  -10.2545 H   0  0  0  0  0  0  0  0  0  0  0  0
   21.9339   47.0306  -11.2677 H   0  0  0  0  0  0  0  0  0  0  0  0
   19.6218   47.6801  -11.7416 H   0  0  0  0  0  0  0  0  0  0  0  0
   17.7643   46.0591  -11.4641 H   0  0  0  0  0  0  0  0  0  0  0  0
   24.7339   44.7734  -10.5447 H   0  0  0  0  0  0  0  0  0  0  0  0
   23.8195   45.9641  -11.4075 H   0  0  0  0  0  0  0  0  0  0  0  0
   24.6477   47.0730   -9.4151 H   0  0  0  0  0  0  0  0  0  0  0  0
   22.9582   46.7940   -9.0959 H   0  0  0  0  0  0  0  0  0  0  0  0
   23.6839   44.6198   -7.8750 H   0  0  0  0  0  0  0  0  0  0  0  0
   25.3234   45.1530   -8.0774 H   0  0  0  0  0  0  0  0  0  0  0  0
   24.6379   45.8195   -5.8447 H   0  0  0  0  0  0  0  0  0  0  0  0
   24.8111   47.2627   -6.7956 H   0  0  0  0  0  0  0  0  0  0  0  0
   22.5024   47.5210   -6.9516 H   0  0  0  0  0  0  0  0  0  0  0  0
   23.1449   44.6488   -4.7608 H   0  0  0  0  0  0  0  0  0  0  0  0
   19.3519   42.8261   -5.7392 H   0  0  0  0  0  0  0  0  0  0  0  0
   20.4580   46.5943   -7.4989 H   0  0  0  0  0  0  0  0  0  0  0  0
   18.9425   42.8483   -8.1019 H   0  0  0  0  0  0  0  0  0  0  0  0
   22.8351   43.4432   -2.7592 H   0  0  0  0  0  0  0  0  0  0  0  0
   23.7240   42.5073   -3.9796 H   0  0  0  0  0  0  0  0  0  0  0  0
   22.8589   41.6788   -2.6775 H   0  0  0  0  0  0  0  0  0  0  0  0
   14.7744   40.6023   -6.5407 H   0  0  0  0  0  0  0  0  0  0  0  0
  1  2  1  0  0  0  0
  1 45  1  0  0  0  0
  1 46  1  0  0  0  0
  1 47  1  0  0  0  0
  2  3  1  0  0  0  0
  2  4  1  0  0  0  0
  2 48  1  0  0  0  0
  3 49  1  0  0  0  0
  3 50  1  0  0  0  0
  3 51  1  0  0  0  0
  4  9  1  0  0  0  0
  4  5  2  0  0  0  0
  5  6  1  0  0  0  0
  5 52  1  0  0  0  0
  6  7  2  0  0  0  0
  6 10  1  0  0  0  0
  7  8  1  0  0  0  0
  7 53  1  0  0  0  0
  8  9  2  0  0  0  0
  8 54  1  0  0  0  0
  9 55  1  0  0  0  0
 10 12  1  0  0  0  0
 10 11  1  0  0  0  0
 10 13  1  0  0  0  0
 11 12  1  0  0  0  0
 11 56  1  0  0  0  0
 11 57  1  0  0  0  0
 12 58  1  0  0  0  0
 12 59  1  0  0  0  0
 13 14  1  0  0  0  0
 13 60  1  0  0  0  0
 13 86  1  0  0  0  0
 14 15  1  0  0  0  0
 14 61  1  0  0  0  0
 14 62  1  0  0  0  0
 15 43  1  6  0  0  0
 15 16  1  0  0  0  0
 15 17  1  0  0  0  0
 16 63  1  0  0  0  0
 17 44  1  1  0  0  0
 17 39  1  0  0  0  0
 17 18  1  0  0  0  0
 18 19  1  0  0  0  0
 18 64  1  0  0  0  0
 18 65  1  0  0  0  0
 19 24  1  0  0  0  0
 19 20  2  0  0  0  0
 20 21  1  0  0  0  0
 20 66  1  0  0  0  0
 21 22  2  0  0  0  0
 21 25  1  0  0  0  0
 22 23  1  0  0  0  0
 22 67  1  0  0  0  0
 23 24  2  0  0  0  0
 23 68  1  0  0  0  0
 24 69  1  0  0  0  0
 25 26  1  0  0  0  0
 26 27  1  0  0  0  0
 26 70  1  0  0  0  0
 26 71  1  0  0  0  0
 27 28  1  0  0  0  0
 27 72  1  0  0  0  0
 27 73  1  0  0  0  0
 28 29  1  0  0  0  0
 28 74  1  0  0  0  0
 28 75  1  0  0  0  0
 29 30  1  0  0  0  0
 29 76  1  0  0  0  0
 29 77  1  0  0  0  0
 30 31  1  0  0  0  0
 30 78  1  0  0  0  0
 31 36  1  0  0  0  0
 31 32  2  0  0  0  0
 32 33  1  0  0  0  0
 32 79  1  0  0  0  0
 33 34  2  0  0  0  0
 33 40  1  0  0  0  0
 34 35  1  0  0  0  0
 34 80  1  0  0  0  0
 35 36  2  0  0  0  0
 35 37  1  0  0  0  0
 36 81  1  0  0  0  0
 37 38  2  0  0  0  0
 37 39  1  0  0  0  0
 39 82  1  0  0  0  0
 40 41  1  0  0  0  0
 40 42  2  0  0  0  0
 41 83  1  0  0  0  0
 41 84  1  0  0  0  0
 41 85  1  0  0  0  0
M  CHG  1  13   1
M  END
>  <s_m_source_file>
BACE_14.smi

>  <i_m_source_file_index>
1

>  <i_lp_mmshare_version>
42013

>  <i_f3d_flags>
0

>  <s_epik_input>
W0NIM11bQ0hdKFtDSDNdKWMxW2NIXWMoW2NIXVtjSF1bY0hdMSlDMihbQ0gyXVtDSDJdMilbTkhdW0NIMl1bQ0BASF0oW09IXSlbQ0BIXShbQ0gyXTMpW05IXUMoPU8pYyhbY0hdNClbY0hdYyhDKD1PKVtDSDNdKVtjSF1jNFtOSF1bQ0gyXVtDSDJdW0NIMl1bQ0gyXU9jKFtjSF1jMzUpW2NIXVtjSF1bY0hdNQ==

>  <s_epik_cmdline>
J2VwaWtfcHl0aG9uJywgJy1waCcsICc3LjAnLCAnLXRuJywgJzgnLCAnLW1hJywgJzIwMCcsICctaW1hZScsICc8aW5maWxlLm1hZT4nLCAnLW9tYWUnLCAnPG91dGZpbGUubWFlPic=

>  <r_lp_tautomer_probability>
0.99995

>  <r_epik_Ionization_Penalty>
0.5137

>  <r_epik_Ionization_Penalty_Charging>
0.5137

>  <r_epik_Ionization_Penalty_Neutral>
0.0000

>  <r_epik_State_Penalty>
0.5212

>  <r_epik_Charging_Adjusted_Penalty>
1.03485

>  <i_epik_Tot_Q>
1

>  <i_epik_Tot_abs_Q>
1

>  <s_lp_Force_Field>
OPLS_2005

>  <r_lp_Energy>
43.6153

>  <b_lp_Chiralities_Consistent>
1

>  <s_lp_Variant>
BACE_14.smi:1-2

>  <chiral flag>
1

>  <version>
0

>  <s_i_glide_gridfile>
second_dock_grid_2

>  <i_i_glide_lignum>
4

>  <i_i_glide_rotatable_bonds>
8

>  <r_i_docking_score>
-5.13205

>  <r_i_glide_ligand_efficiency>
-0.122192

>  <r_i_glide_ligand_efficiency_sa>
-0.424741

>  <r_i_glide_ligand_efficiency_ln>
-1.08324

>  <r_glide_XP_GScore>
-5.65325

>  <r_i_glide_gscore>
-5.65325

>  <r_i_glide_evdw>
-39.2886

>  <r_i_glide_ecoul>
-13.7454

>  <r_i_glide_energy>
-53.034

>  <r_i_glide_einternal>
2.22775

>  <r_i_glide_emodel>
-75.1688

>  <r_glide_XP_HBond>
-1.23713

>  <i_i_glide_confnum>
1

>  <i_i_glide_posenum>
130

>  <r_i_glide_eff_state_penalty>
0.5212

>  <i_glide_XP_PoseRank>
1

$$$$
