BACE_53.smi:1
 OpenBabel09301813003D
Structure written by MMmdl.
 80 82  0  0  1  0  0  0  0  0999 V2000
   22.7312   42.5487   -3.3929 C   0  0  0  0  0  0  0  0  0  0  0  0
   21.9018   42.8800   -4.6392 C   0  0  0  0  0  0  0  0  0  0  0  0
   20.3992   42.9057   -4.3263 C   0  0  0  0  0  0  0  0  0  0  0  0
   22.2287   41.9259   -5.7802 C   0  0  0  0  0  0  0  0  0  0  0  0
   21.9127   40.5527   -5.6861 C   0  0  0  0  0  0  0  0  0  0  0  0
   22.2283   39.6794   -6.7431 C   0  0  0  0  0  0  0  0  0  0  0  0
   22.8634   40.1685   -7.9001 C   0  0  0  0  0  0  0  0  0  0  0  0
   23.1609   41.5415   -8.0163 C   0  0  0  0  0  0  0  0  0  0  0  0
   23.7892   42.0842   -9.2894 C   0  0  0  0  0  0  0  0  0  0  0  0
   22.8585   42.2324  -10.4198 N   0  0  0  0  0  0  0  0  0  0  0  0
   21.9852   43.4139  -10.4016 C   0  0  0  0  0  0  0  0  0  0  0  0
   20.7302   43.2895   -9.4899 C   0  0  1  0  0  0  0  0  0  0  0  0
   20.3787   44.6049   -9.1025 O   0  0  0  0  0  0  0  0  0  0  0  0
   19.4410   42.6294  -10.0590 C   0  0  2  0  0  0  0  0  0  0  0  0
   19.2804   41.1149   -9.7733 C   0  0  0  0  0  0  0  0  0  0  0  0
   20.2919   40.1078  -10.3697 C   0  0  2  0  0  0  0  0  0  0  0  0
   20.3950   40.0978  -11.9084 C   0  0  0  0  0  0  0  0  0  0  0  0
   20.0348   38.7009   -9.7974 C   0  0  0  0  0  0  0  0  0  0  0  0
   18.8490   37.9623  -10.4400 C   0  0  0  0  0  0  0  0  0  0  0  0
   18.0770   37.0728   -9.4600 C   0  0  0  0  0  0  0  0  0  0  0  0
   17.0830   37.8603   -8.5927 C   0  0  0  0  0  0  0  0  0  0  0  0
   15.6908   37.9950   -9.2390 C   0  0  0  0  0  0  0  0  0  0  0  0
   14.6965   38.7972   -8.3763 C   0  0  0  0  0  0  0  0  0  0  0  0
   14.9064   40.3182   -8.4642 C   0  0  0  0  0  0  0  0  0  0  0  0
   14.3298   40.9303   -9.7536 C   0  0  0  0  0  0  0  0  0  0  0  0
   15.0306   42.2184  -10.1317 C   0  0  0  0  0  0  0  0  0  0  0  0
   16.1479   42.1755  -10.9872 C   0  0  0  0  0  0  0  0  0  0  0  0
   16.8474   43.3697  -11.2406 C   0  0  0  0  0  0  0  0  0  0  0  0
   16.3736   44.5664  -10.6693 C   0  0  0  0  0  0  0  0  0  0  0  0
   15.2400   44.5027   -9.8377 C   0  0  0  0  0  0  0  0  0  0  0  0
   14.5748   43.3602   -9.5718 N   0  0  0  0  0  0  0  0  0  0  0  0
   18.0981   43.3540  -12.0611 C   0  0  0  0  0  0  0  0  0  0  0  0
   18.0591   43.6870  -13.2400 O   0  0  0  0  0  0  0  0  0  0  0  0
   19.2334   42.9457  -11.4723 N   0  0  0  0  0  0  0  0  0  0  0  0
   22.8601   42.4121   -6.9454 C   0  0  0  0  0  0  0  0  0  0  0  0
   20.9615   42.7859   -8.5605 H   0  0  0  0  0  0  0  0  0  0  0  0
   18.6258   43.0662   -9.4805 H   0  0  0  0  0  0  0  0  0  0  0  0
   21.2667   40.3810   -9.9920 H   0  0  0  0  0  0  0  0  0  0  0  0
   23.7917   42.5502   -3.6380 H   0  0  0  0  0  0  0  0  0  0  0  0
   22.4844   41.5639   -2.9955 H   0  0  0  0  0  0  0  0  0  0  0  0
   22.5680   43.2802   -2.6002 H   0  0  0  0  0  0  0  0  0  0  0  0
   22.1809   43.8855   -4.9570 H   0  0  0  0  0  0  0  0  0  0  0  0
   19.8143   43.1511   -5.2134 H   0  0  0  0  0  0  0  0  0  0  0  0
   20.1671   43.6469   -3.5610 H   0  0  0  0  0  0  0  0  0  0  0  0
   20.0569   41.9371   -3.9607 H   0  0  0  0  0  0  0  0  0  0  0  0
   21.4299   40.1629   -4.8007 H   0  0  0  0  0  0  0  0  0  0  0  0
   21.9881   38.6303   -6.6641 H   0  0  0  0  0  0  0  0  0  0  0  0
   23.1029   39.4922   -8.7081 H   0  0  0  0  0  0  0  0  0  0  0  0
   24.3035   43.0254   -9.0846 H   0  0  0  0  0  0  0  0  0  0  0  0
   24.5707   41.3768   -9.5744 H   0  0  0  0  0  0  0  0  0  0  0  0
   23.3810   42.1842  -11.2918 H   0  0  0  0  0  0  0  0  0  0  0  0
   22.5797   44.2712  -10.0798 H   0  0  0  0  0  0  0  0  0  0  0  0
   21.6805   43.6564  -11.4203 H   0  0  0  0  0  0  0  0  0  0  0  0
   19.7319   44.5492   -8.4151 H   0  0  0  0  0  0  0  0  0  0  0  0
   19.2939   40.9981   -8.6879 H   0  0  0  0  0  0  0  0  0  0  0  0
   18.2796   40.8060  -10.0651 H   0  0  0  0  0  0  0  0  0  0  0  0
   19.4181   39.9985  -12.3821 H   0  0  0  0  0  0  0  0  0  0  0  0
   21.0198   39.2733  -12.2520 H   0  0  0  0  0  0  0  0  0  0  0  0
   20.8561   41.0100  -12.2828 H   0  0  0  0  0  0  0  0  0  0  0  0
   20.9309   38.0910   -9.9178 H   0  0  0  0  0  0  0  0  0  0  0  0
   19.8943   38.7762   -8.7181 H   0  0  0  0  0  0  0  0  0  0  0  0
   18.1507   38.6518  -10.9129 H   0  0  0  0  0  0  0  0  0  0  0  0
   19.2597   37.3497  -11.2397 H   0  0  0  0  0  0  0  0  0  0  0  0
   17.5400   36.2974  -10.0045 H   0  0  0  0  0  0  0  0  0  0  0  0
   18.7892   36.5502   -8.8287 H   0  0  0  0  0  0  0  0  0  0  0  0
   16.9719   37.3501   -7.6400 H   0  0  0  0  0  0  0  0  0  0  0  0
   17.4967   38.8372   -8.3461 H   0  0  0  0  0  0  0  0  0  0  0  0
   15.7807   38.4391  -10.2298 H   0  0  0  0  0  0  0  0  0  0  0  0
   15.2845   36.9968   -9.4001 H   0  0  0  0  0  0  0  0  0  0  0  0
   13.6730   38.5613   -8.6726 H   0  0  0  0  0  0  0  0  0  0  0  0
   14.7823   38.4760   -7.3359 H   0  0  0  0  0  0  0  0  0  0  0  0
   14.4603   40.8125   -7.6006 H   0  0  0  0  0  0  0  0  0  0  0  0
   15.9737   40.5301   -8.3959 H   0  0  0  0  0  0  0  0  0  0  0  0
   14.4259   40.2360  -10.5885 H   0  0  0  0  0  0  0  0  0  0  0  0
   13.2602   41.1059   -9.6404 H   0  0  0  0  0  0  0  0  0  0  0  0
   16.4889   41.2354  -11.3989 H   0  0  0  0  0  0  0  0  0  0  0  0
   16.8842   45.5044  -10.8350 H   0  0  0  0  0  0  0  0  0  0  0  0
   14.8612   45.3943   -9.3628 H   0  0  0  0  0  0  0  0  0  0  0  0
   20.0578   42.9084  -12.0505 H   0  0  0  0  0  0  0  0  0  0  0  0
   23.0991   43.4621   -7.0310 H   0  0  0  0  0  0  0  0  0  0  0  0
  1  2  1  0  0  0  0
  1 39  1  0  0  0  0
  1 40  1  0  0  0  0
  1 41  1  0  0  0  0
  2  3  1  0  0  0  0
  2  4  1  0  0  0  0
  2 42  1  0  0  0  0
  3 43  1  0  0  0  0
  3 44  1  0  0  0  0
  3 45  1  0  0  0  0
  4 35  1  0  0  0  0
  4  5  2  0  0  0  0
  5  6  1  0  0  0  0
  5 46  1  0  0  0  0
  6  7  2  0  0  0  0
  6 47  1  0  0  0  0
  7  8  1  0  0  0  0
  7 48  1  0  0  0  0
  8  9  1  0  0  0  0
  8 35  2  0  0  0  0
  9 10  1  0  0  0  0
  9 49  1  0  0  0  0
  9 50  1  0  0  0  0
 10 11  1  0  0  0  0
 10 51  1  0  0  0  0
 11 12  1  0  0  0  0
 11 52  1  0  0  0  0
 11 53  1  0  0  0  0
 12 36  1  1  0  0  0
 12 13  1  0  0  0  0
 12 14  1  0  0  0  0
 13 54  1  0  0  0  0
 14 37  1  1  0  0  0
 14 34  1  0  0  0  0
 14 15  1  0  0  0  0
 15 16  1  0  0  0  0
 15 55  1  0  0  0  0
 15 56  1  0  0  0  0
 16 38  1  1  0  0  0
 16 17  1  0  0  0  0
 16 18  1  0  0  0  0
 17 57  1  0  0  0  0
 17 58  1  0  0  0  0
 17 59  1  0  0  0  0
 18 19  1  0  0  0  0
 18 60  1  0  0  0  0
 18 61  1  0  0  0  0
 19 20  1  0  0  0  0
 19 62  1  0  0  0  0
 19 63  1  0  0  0  0
 20 21  1  0  0  0  0
 20 64  1  0  0  0  0
 20 65  1  0  0  0  0
 21 22  1  0  0  0  0
 21 66  1  0  0  0  0
 21 67  1  0  0  0  0
 22 23  1  0  0  0  0
 22 68  1  0  0  0  0
 22 69  1  0  0  0  0
 23 24  1  0  0  0  0
 23 70  1  0  0  0  0
 23 71  1  0  0  0  0
 24 25  1  0  0  0  0
 24 72  1  0  0  0  0
 24 73  1  0  0  0  0
 25 26  1  0  0  0  0
 25 74  1  0  0  0  0
 25 75  1  0  0  0  0
 26 31  1  0  0  0  0
 26 27  2  0  0  0  0
 27 28  1  0  0  0  0
 27 76  1  0  0  0  0
 28 29  2  0  0  0  0
 28 32  1  0  0  0  0
 29 30  1  0  0  0  0
 29 77  1  0  0  0  0
 30 31  2  0  0  0  0
 30 78  1  0  0  0  0
 32 33  2  0  0  0  0
 32 34  1  0  0  0  0
 34 79  1  0  0  0  0
 35 80  1  0  0  0  0
M  END
>  <s_m_source_file>
BACE_53.smi

>  <i_m_source_file_index>
1

>  <i_lp_mmshare_version>
42013

>  <i_f3d_flags>
0

>  <s_epik_input>
W0NIM11bQ0hdKFtDSDNdKWMxW2NIXVtjSF1bY0hdYyhbY0hdMSlbQ0gyXVtOSF1bQ0gyXVtDQEBIXShbT0hdKVtDQEBIXShbTkhdQyg9TyljKFtjSF1jMjMpW2NIXVtjSF1uMylbQ0gyXVtDQEhdKFtDSDNdKVtDSDJdW0NIMl1bQ0gyXVtDSDJdW0NIMl1bQ0gyXVtDSDJdW0NIMl0y

>  <s_epik_cmdline>
J2VwaWtfcHl0aG9uJywgJy1waCcsICc3LjAnLCAnLXRuJywgJzgnLCAnLW1hJywgJzIwMCcsICctaW1hZScsICc8aW5maWxlLm1hZT4nLCAnLW9tYWUnLCAnPG91dGZpbGUubWFlPic=

>  <r_epik_Ionization_Penalty>
2.1025

>  <r_epik_Ionization_Penalty_Charging>
0.0000

>  <r_epik_Ionization_Penalty_Neutral>
2.1025

>  <r_epik_State_Penalty>
2.2376

>  <r_epik_Charging_Adjusted_Penalty>
2.23761

>  <i_epik_Tot_Q>
0

>  <i_epik_Tot_abs_Q>
0

>  <s_lp_Force_Field>
OPLS_2005

>  <r_lp_Energy>
40.4993

>  <b_lp_Chiralities_Consistent>
1

>  <s_lp_Variant>
BACE_53.smi:1-2

>  <chiral flag>
1

>  <version>
0

>  <s_i_glide_gridfile>
second_dock_grid_2

>  <i_i_glide_lignum>
13

>  <i_i_glide_rotatable_bonds>
7

>  <r_i_docking_score>
-2.39672

>  <r_i_glide_ligand_efficiency>
-0.0684777

>  <r_i_glide_ligand_efficiency_sa>
-0.223995

>  <r_i_glide_ligand_efficiency_ln>
-0.526133

>  <r_glide_XP_GScore>
-4.63432

>  <r_i_glide_gscore>
-4.63432

>  <r_i_glide_evdw>
-40.4816

>  <r_i_glide_ecoul>
-6.94264

>  <r_i_glide_energy>
-47.4243

>  <r_i_glide_einternal>
5.82963

>  <r_i_glide_emodel>
-63.8844

>  <r_glide_XP_HBond>
-1.89

>  <i_i_glide_confnum>
1

>  <i_i_glide_posenum>
1

>  <r_i_glide_eff_state_penalty>
2.2376

>  <i_glide_XP_PoseRank>
1

$$$$
