BACE_73.smi:1
 OpenBabel09301813003D
Structure written by MMmdl.
 79 81  0  0  1  0  0  0  0  0999 V2000
   30.7161   43.4736  -14.2190 C   0  0  0  0  0  0  0  0  0  0  0  0
   30.7192   42.0287  -13.7162 C   0  0  0  0  0  0  0  0  0  0  0  0
   29.3982   41.6657  -13.3451 O   0  0  0  0  0  0  0  0  0  0  0  0
   28.9051   42.1349  -12.1463 C   0  0  0  0  0  0  0  0  0  0  0  0
   27.5818   41.9197  -11.6836 C   0  0  0  0  0  0  0  0  0  0  0  0
   27.1676   42.4318  -10.4341 C   0  0  0  0  0  0  0  0  0  0  0  0
   25.7532   42.2115   -9.9229 C   0  0  0  0  0  0  0  0  0  0  0  0
   24.7204   42.5516  -10.8989 N   0  0  0  0  0  0  0  0  0  0  0  0
   23.3670   42.2741  -10.4253 C   0  0  0  0  0  0  0  0  0  0  0  0
   23.1874   40.7820  -10.0748 C   0  0  1  0  0  0  0  0  0  0  0  0
   23.8956   40.5508   -8.8709 O   0  0  0  0  0  0  0  0  0  0  0  0
   21.7067   40.3347   -9.8986 C   0  0  2  0  0  0  0  0  0  0  0  0
   21.5482   38.8159   -9.5936 C   0  0  0  0  0  0  0  0  0  0  0  0
   20.1380   38.2474   -9.2820 C   0  0  2  0  0  0  0  0  0  0  0  0
   19.2271   38.1404  -10.5174 C   0  0  0  0  0  0  0  0  0  0  0  0
   19.4011   38.9061   -8.0957 C   0  0  0  0  0  0  0  0  0  0  0  0
   20.0940   38.7307   -6.7305 C   0  0  0  0  0  0  0  0  0  0  0  0
   21.0309   39.7686   -6.4836 O   0  0  0  0  0  0  0  0  0  0  0  0
   20.4514   40.9029   -5.8539 C   0  0  0  0  0  0  0  0  0  0  0  0
   21.4978   42.0201   -5.7896 C   0  0  0  0  0  0  0  0  0  0  0  0
   21.0168   43.3128   -5.1041 C   0  0  0  0  0  0  0  0  0  0  0  0
   19.7968   43.9804   -5.7632 C   0  0  0  0  0  0  0  0  0  0  0  0
   20.0334   44.3019   -7.1669 N   0  0  0  0  0  0  0  0  0  0  0  0
   19.2942   43.5763   -8.1093 C   0  0  0  0  0  0  0  0  0  0  0  0
   19.9678   43.0022   -9.2075 C   0  0  0  0  0  0  0  0  0  0  0  0
   19.2682   42.2029  -10.1400 C   0  0  0  0  0  0  0  0  0  0  0  0
   17.8726   42.0430  -10.0018 C   0  0  0  0  0  0  0  0  0  0  0  0
   17.1901   42.6376   -8.9254 C   0  0  0  0  0  0  0  0  0  0  0  0
   17.8988   43.3983   -7.9785 C   0  0  0  0  0  0  0  0  0  0  0  0
   19.9584   41.5693  -11.3135 C   0  0  0  0  0  0  0  0  0  0  0  0
   19.5199   41.7672  -12.4447 O   0  0  0  0  0  0  0  0  0  0  0  0
   20.9935   40.7291  -11.1172 N   0  0  0  0  0  0  0  0  0  0  0  0
   28.0729   43.1774   -9.6520 C   0  0  0  0  0  0  0  0  0  0  0  0
   29.3924   43.3986  -10.0983 C   0  0  0  0  0  0  0  0  0  0  0  0
   29.7960   42.8738  -11.3429 C   0  0  0  0  0  0  0  0  0  0  0  0
   30.3755   44.2075   -9.2653 C   0  0  0  0  0  0  0  0  0  0  0  0
   31.0846   45.0195  -10.0495 F   0  0  0  0  0  0  0  0  0  0  0  0
   29.7008   44.9439   -8.3833 F   0  0  0  0  0  0  0  0  0  0  0  0
   31.2243   43.4197   -8.6041 F   0  0  0  0  0  0  0  0  0  0  0  0
   23.6729   40.1773  -10.8435 H   0  0  0  0  0  0  0  0  0  0  0  0
   21.3118   40.8659   -9.0379 H   0  0  0  0  0  0  0  0  0  0  0  0
   20.3146   37.2117   -8.9882 H   0  0  0  0  0  0  0  0  0  0  0  0
   31.7170   43.7804  -14.5228 H   0  0  0  0  0  0  0  0  0  0  0  0
   30.3774   44.1584  -13.4412 H   0  0  0  0  0  0  0  0  0  0  0  0
   30.0552   43.5877  -15.0785 H   0  0  0  0  0  0  0  0  0  0  0  0
   31.0733   41.3702  -14.5091 H   0  0  0  0  0  0  0  0  0  0  0  0
   31.3959   41.9416  -12.8651 H   0  0  0  0  0  0  0  0  0  0  0  0
   26.8699   41.3612  -12.2722 H   0  0  0  0  0  0  0  0  0  0  0  0
   25.6565   41.1619   -9.6420 H   0  0  0  0  0  0  0  0  0  0  0  0
   25.6149   42.7855   -9.0075 H   0  0  0  0  0  0  0  0  0  0  0  0
   24.8905   42.0459  -11.7626 H   0  0  0  0  0  0  0  0  0  0  0  0
   23.1848   42.8785   -9.5350 H   0  0  0  0  0  0  0  0  0  0  0  0
   22.6295   42.5943  -11.1618 H   0  0  0  0  0  0  0  0  0  0  0  0
   24.2109   39.6602   -8.8737 H   0  0  0  0  0  0  0  0  0  0  0  0
   21.9528   38.2348  -10.4227 H   0  0  0  0  0  0  0  0  0  0  0  0
   22.1905   38.5748   -8.7465 H   0  0  0  0  0  0  0  0  0  0  0  0
   18.8052   39.1014  -10.8021 H   0  0  0  0  0  0  0  0  0  0  0  0
   18.3862   37.4754  -10.3184 H   0  0  0  0  0  0  0  0  0  0  0  0
   19.7637   37.7366  -11.3763 H   0  0  0  0  0  0  0  0  0  0  0  0
   19.1994   39.9566   -8.2994 H   0  0  0  0  0  0  0  0  0  0  0  0
   18.4198   38.4367   -8.0191 H   0  0  0  0  0  0  0  0  0  0  0  0
   19.3539   38.6885   -5.9294 H   0  0  0  0  0  0  0  0  0  0  0  0
   20.6178   37.7750   -6.6988 H   0  0  0  0  0  0  0  0  0  0  0  0
   19.5771   41.2365   -6.4121 H   0  0  0  0  0  0  0  0  0  0  0  0
   20.1184   40.6404   -4.8489 H   0  0  0  0  0  0  0  0  0  0  0  0
   22.3741   41.6489   -5.2584 H   0  0  0  0  0  0  0  0  0  0  0  0
   21.8288   42.2488   -6.8008 H   0  0  0  0  0  0  0  0  0  0  0  0
   20.7798   43.0973   -4.0618 H   0  0  0  0  0  0  0  0  0  0  0  0
   21.8429   44.0236   -5.0784 H   0  0  0  0  0  0  0  0  0  0  0  0
   18.9263   43.3388   -5.6305 H   0  0  0  0  0  0  0  0  0  0  0  0
   19.5676   44.9091   -5.2406 H   0  0  0  0  0  0  0  0  0  0  0  0
   21.0071   44.4294   -7.4029 H   0  0  0  0  0  0  0  0  0  0  0  0
   21.0323   43.1546   -9.3180 H   0  0  0  0  0  0  0  0  0  0  0  0
   17.3183   41.4550  -10.7195 H   0  0  0  0  0  0  0  0  0  0  0  0
   16.1229   42.5070   -8.8242 H   0  0  0  0  0  0  0  0  0  0  0  0
   17.3610   43.8477   -7.1565 H   0  0  0  0  0  0  0  0  0  0  0  0
   21.3619   40.3140  -11.9605 H   0  0  0  0  0  0  0  0  0  0  0  0
   27.7491   43.5815   -8.7041 H   0  0  0  0  0  0  0  0  0  0  0  0
   30.8039   43.0449  -11.6922 H   0  0  0  0  0  0  0  0  0  0  0  0
  1  2  1  0  0  0  0
  1 43  1  0  0  0  0
  1 44  1  0  0  0  0
  1 45  1  0  0  0  0
  2  3  1  0  0  0  0
  2 46  1  0  0  0  0
  2 47  1  0  0  0  0
  3  4  1  0  0  0  0
  4 35  1  0  0  0  0
  4  5  2  0  0  0  0
  5  6  1  0  0  0  0
  5 48  1  0  0  0  0
  6  7  1  0  0  0  0
  6 33  2  0  0  0  0
  7  8  1  0  0  0  0
  7 49  1  0  0  0  0
  7 50  1  0  0  0  0
  8  9  1  0  0  0  0
  8 51  1  0  0  0  0
  9 10  1  0  0  0  0
  9 52  1  0  0  0  0
  9 53  1  0  0  0  0
 10 40  1  6  0  0  0
 10 11  1  0  0  0  0
 10 12  1  0  0  0  0
 11 54  1  0  0  0  0
 12 41  1  1  0  0  0
 12 32  1  0  0  0  0
 12 13  1  0  0  0  0
 13 14  1  0  0  0  0
 13 55  1  0  0  0  0
 13 56  1  0  0  0  0
 14 42  1  1  0  0  0
 14 15  1  0  0  0  0
 14 16  1  0  0  0  0
 15 57  1  0  0  0  0
 15 58  1  0  0  0  0
 15 59  1  0  0  0  0
 16 17  1  0  0  0  0
 16 60  1  0  0  0  0
 16 61  1  0  0  0  0
 17 18  1  0  0  0  0
 17 62  1  0  0  0  0
 17 63  1  0  0  0  0
 18 19  1  0  0  0  0
 19 20  1  0  0  0  0
 19 64  1  0  0  0  0
 19 65  1  0  0  0  0
 20 21  1  0  0  0  0
 20 66  1  0  0  0  0
 20 67  1  0  0  0  0
 21 22  1  0  0  0  0
 21 68  1  0  0  0  0
 21 69  1  0  0  0  0
 22 23  1  0  0  0  0
 22 70  1  0  0  0  0
 22 71  1  0  0  0  0
 23 24  1  0  0  0  0
 23 72  1  0  0  0  0
 24 29  1  0  0  0  0
 24 25  2  0  0  0  0
 25 26  1  0  0  0  0
 25 73  1  0  0  0  0
 26 27  2  0  0  0  0
 26 30  1  0  0  0  0
 27 28  1  0  0  0  0
 27 74  1  0  0  0  0
 28 29  2  0  0  0  0
 28 75  1  0  0  0  0
 29 76  1  0  0  0  0
 30 31  2  0  0  0  0
 30 32  1  0  0  0  0
 32 77  1  0  0  0  0
 33 34  1  0  0  0  0
 33 78  1  0  0  0  0
 34 35  2  0  0  0  0
 34 36  1  0  0  0  0
 35 79  1  0  0  0  0
 36 37  1  0  0  0  0
 36 38  1  0  0  0  0
 36 39  1  0  0  0  0
M  END
>  <s_m_source_file>
BACE_73.smi

>  <i_m_source_file_index>
1

>  <i_lp_mmshare_version>
42013

>  <i_f3d_flags>
0

>  <s_epik_input>
W0NIM11bQ0gyXU9jMVtjSF1jKFtjSF1jKFtjSF0xKUMoRikoRilGKVtDSDJdW05IXVtDSDJdW0NAQEhdKFtPSF0pW0NAQEhdKFtOSF1DKD1PKWMoW2NIXWMyMylbY0hdW2NIXVtjSF0zKVtDSDJdW0NASF0oW0NIM10pW0NIMl1bQ0gyXU9bQ0gyXVtDSDJdW0NIMl1bQ0gyXVtOSF0y

>  <s_epik_cmdline>
J2VwaWtfcHl0aG9uJywgJy1waCcsICc3LjAnLCAnLXRuJywgJzgnLCAnLW1hJywgJzIwMCcsICctaW1hZScsICc8aW5maWxlLm1hZT4nLCAnLW9tYWUnLCAnPG91dGZpbGUubWFlPic=

>  <r_lp_tautomer_probability>
1

>  <r_epik_Ionization_Penalty>
1.9455

>  <r_epik_Ionization_Penalty_Charging>
0.0000

>  <r_epik_Ionization_Penalty_Neutral>
1.9455

>  <r_epik_State_Penalty>
2.0695

>  <r_epik_Charging_Adjusted_Penalty>
2.06951

>  <i_epik_Tot_Q>
0

>  <i_epik_Tot_abs_Q>
0

>  <s_lp_Force_Field>
OPLS_2005

>  <r_lp_Energy>
46.6473

>  <b_lp_Chiralities_Consistent>
1

>  <s_lp_Variant>
BACE_73.smi:1-2

>  <chiral flag>
1

>  <version>
0

>  <s_i_glide_gridfile>
second_dock_grid_2

>  <i_i_glide_lignum>
29

>  <i_i_glide_rotatable_bonds>
9

>  <r_i_docking_score>
-2.55969

>  <r_i_glide_ligand_efficiency>
-0.065633

>  <r_i_glide_ligand_efficiency_sa>
-0.222575

>  <r_i_glide_ligand_efficiency_ln>
-0.548869

>  <r_glide_XP_GScore>
-4.62919

>  <r_i_glide_gscore>
-4.62919

>  <r_i_glide_evdw>
-39.9471

>  <r_i_glide_ecoul>
-7.57464

>  <r_i_glide_energy>
-47.5218

>  <r_i_glide_einternal>
7.28803

>  <r_i_glide_emodel>
-65.988

>  <r_glide_XP_HBond>
-1.33

>  <i_i_glide_confnum>
1

>  <i_i_glide_posenum>
3

>  <r_i_glide_eff_state_penalty>
2.0695

>  <i_glide_XP_PoseRank>
1

$$$$
