BACE_130.smi:1
 OpenBabel09301813003D
Structure written by MMmdl.
 85 88  0  0  1  0  0  0  0  0999 V2000
   22.6969   48.6288   -7.0066 C   0  0  0  0  0  0  0  0  0  0  0  0
   21.4605   48.1187   -6.5241 O   0  0  0  0  0  0  0  0  0  0  0  0
   21.3141   46.7558   -6.3667 C   0  0  0  0  0  0  0  0  0  0  0  0
   22.4173   45.8693   -6.4974 C   0  0  0  0  0  0  0  0  0  0  0  0
   22.2741   44.4863   -6.2943 C   0  0  0  0  0  0  0  0  0  0  0  0
   21.0175   43.9511   -5.9698 C   0  0  0  0  0  0  0  0  0  0  0  0
   20.8583   42.4524   -5.7451 C   0  0  0  0  0  0  0  0  0  0  0  0
   20.5663   41.6673   -7.0453 C   0  0  2  0  0  0  0  0  0  0  0  0
   19.3316   42.1422   -7.6708 N   0  0  0  0  0  0  0  0  0  0  0  0
   19.2615   42.7476   -8.8648 C   0  0  0  0  0  0  0  0  0  0  0  0
   20.2378   42.9517   -9.5869 O   0  0  0  0  0  0  0  0  0  0  0  0
   17.9072   43.2420   -9.2623 C   0  0  0  0  0  0  0  0  0  0  0  0
   16.7710   42.4086   -9.2155 C   0  0  0  0  0  0  0  0  0  0  0  0
   15.5174   42.8862   -9.6499 C   0  0  0  0  0  0  0  0  0  0  0  0
   14.3119   41.9588   -9.6489 C   0  0  0  0  0  0  0  0  0  0  0  0
   14.0613   41.3628  -10.9108 O   0  0  0  0  0  0  0  0  0  0  0  0
   15.3925   44.2307  -10.0659 C   0  0  0  0  0  0  0  0  0  0  0  0
   16.5137   45.0887  -10.0706 C   0  0  0  0  0  0  0  0  0  0  0  0
   17.7770   44.5647   -9.7181 C   0  0  0  0  0  0  0  0  0  0  0  0
   16.3436   46.4467  -10.3932 N   0  0  0  0  0  0  0  0  0  0  0  0
   17.3247   47.4253   -9.9287 C   0  0  0  0  0  0  0  0  0  0  0  0
   17.3701   47.5306   -8.3922 C   0  0  0  0  0  0  0  0  0  0  0  0
   18.5871   48.2983   -7.8548 C   0  0  0  0  0  0  0  0  0  0  0  0
   18.6681   48.2395   -6.3161 C   0  0  0  0  0  0  0  0  0  0  0  0
   18.8593   46.9124   -5.8318 O   0  0  0  0  0  0  0  0  0  0  0  0
   20.0349   46.2110   -6.0394 C   0  0  0  0  0  0  0  0  0  0  0  0
   19.9129   44.8176   -5.8583 C   0  0  0  0  0  0  0  0  0  0  0  0
   20.5062   40.1250   -6.9218 C   0  0  2  0  0  0  0  0  0  0  0  0
   20.0601   39.7505   -5.6399 O   0  0  0  0  0  0  0  0  0  0  0  0
   21.8480   39.3929   -7.1888 C   0  0  0  0  0  0  0  0  0  0  0  0
   22.3392   39.4827   -8.5933 N   0  3  0  0  0  0  0  0  0  0  0  0
   21.8014   38.4973   -9.5637 C   0  0  0  0  0  0  0  0  0  0  0  0
   20.4270   38.8835  -10.0625 C   0  0  0  0  0  0  0  0  0  0  0  0
   19.2745   38.2811   -9.5139 C   0  0  0  0  0  0  0  0  0  0  0  0
   17.9932   38.7548   -9.8607 C   0  0  0  0  0  0  0  0  0  0  0  0
   17.8724   39.7617  -10.8399 C   0  0  0  0  0  0  0  0  0  0  0  0
   19.0172   40.3129  -11.4440 C   0  0  0  0  0  0  0  0  0  0  0  0
   20.2963   39.8839  -11.0472 C   0  0  0  0  0  0  0  0  0  0  0  0
   16.7523   38.2283   -9.1535 C   0  0  0  0  0  0  0  0  0  0  0  0
   16.5648   36.7250   -9.3787 C   0  0  0  0  0  0  0  0  0  0  0  0
   16.7687   38.5677   -7.6555 C   0  0  0  0  0  0  0  0  0  0  0  0
   21.3975   41.8932   -7.7138 H   0  0  0  0  0  0  0  0  0  0  0  0
   19.7440   39.7496   -7.5883 H   0  0  0  0  0  0  0  0  0  0  0  0
   22.6072   49.7054   -7.1507 H   0  0  0  0  0  0  0  0  0  0  0  0
   22.9587   48.1890   -7.9700 H   0  0  0  0  0  0  0  0  0  0  0  0
   23.5051   48.4603   -6.2949 H   0  0  0  0  0  0  0  0  0  0  0  0
   23.4066   46.2265   -6.7392 H   0  0  0  0  0  0  0  0  0  0  0  0
   23.1343   43.8395   -6.3853 H   0  0  0  0  0  0  0  0  0  0  0  0
   20.0623   42.2984   -5.0156 H   0  0  0  0  0  0  0  0  0  0  0  0
   21.7680   42.0703   -5.2799 H   0  0  0  0  0  0  0  0  0  0  0  0
   18.4804   42.0519   -7.1309 H   0  0  0  0  0  0  0  0  0  0  0  0
   16.8650   41.3915   -8.8724 H   0  0  0  0  0  0  0  0  0  0  0  0
   14.4560   41.1691   -8.9097 H   0  0  0  0  0  0  0  0  0  0  0  0
   13.4291   42.5177   -9.3382 H   0  0  0  0  0  0  0  0  0  0  0  0
   13.3414   40.7504  -10.8003 H   0  0  0  0  0  0  0  0  0  0  0  0
   14.4240   44.6025  -10.3641 H   0  0  0  0  0  0  0  0  0  0  0  0
   18.6621   45.1828   -9.7404 H   0  0  0  0  0  0  0  0  0  0  0  0
   15.3988   46.7792  -10.5127 H   0  0  0  0  0  0  0  0  0  0  0  0
   17.0651   48.3978  -10.3489 H   0  0  0  0  0  0  0  0  0  0  0  0
   18.3061   47.1852  -10.3356 H   0  0  0  0  0  0  0  0  0  0  0  0
   17.3746   46.5381   -7.9414 H   0  0  0  0  0  0  0  0  0  0  0  0
   16.4604   48.0144   -8.0423 H   0  0  0  0  0  0  0  0  0  0  0  0
   18.5281   49.3384   -8.1778 H   0  0  0  0  0  0  0  0  0  0  0  0
   19.5000   47.8964   -8.2942 H   0  0  0  0  0  0  0  0  0  0  0  0
   17.7125   48.5735   -5.9148 H   0  0  0  0  0  0  0  0  0  0  0  0
   19.3901   48.9398   -5.8998 H   0  0  0  0  0  0  0  0  0  0  0  0
   18.9411   44.4054   -5.6401 H   0  0  0  0  0  0  0  0  0  0  0  0
   19.2237   40.1752   -5.4695 H   0  0  0  0  0  0  0  0  0  0  0  0
   22.6147   39.8168   -6.5396 H   0  0  0  0  0  0  0  0  0  0  0  0
   21.7691   38.3409   -6.9093 H   0  0  0  0  0  0  0  0  0  0  0  0
   22.1817   40.4130   -8.9542 H   0  0  0  0  0  0  0  0  0  0  0  0
   22.4601   38.4682  -10.4307 H   0  0  0  0  0  0  0  0  0  0  0  0
   21.8024   37.4896   -9.1476 H   0  0  0  0  0  0  0  0  0  0  0  0
   19.3750   37.5171   -8.7561 H   0  0  0  0  0  0  0  0  0  0  0  0
   16.8948   40.1228  -11.1297 H   0  0  0  0  0  0  0  0  0  0  0  0
   18.9116   41.0880  -12.1880 H   0  0  0  0  0  0  0  0  0  0  0  0
   21.1702   40.3424  -11.4867 H   0  0  0  0  0  0  0  0  0  0  0  0
   15.8851   38.7293   -9.5858 H   0  0  0  0  0  0  0  0  0  0  0  0
   16.4577   36.5112  -10.4396 H   0  0  0  0  0  0  0  0  0  0  0  0
   15.6650   36.3729   -8.8826 H   0  0  0  0  0  0  0  0  0  0  0  0
   17.4021   36.1441   -8.9922 H   0  0  0  0  0  0  0  0  0  0  0  0
   16.8898   39.6361   -7.4808 H   0  0  0  0  0  0  0  0  0  0  0  0
   17.5711   38.0495   -7.1288 H   0  0  0  0  0  0  0  0  0  0  0  0
   15.8265   38.2729   -7.1919 H   0  0  0  0  0  0  0  0  0  0  0  0
   23.3373   39.3189   -8.5760 H   0  0  0  0  0  0  0  0  0  0  0  0
  1  2  1  0  0  0  0
  1 44  1  0  0  0  0
  1 45  1  0  0  0  0
  1 46  1  0  0  0  0
  2  3  1  0  0  0  0
  3 26  1  0  0  0  0
  3  4  2  0  0  0  0
  4  5  1  0  0  0  0
  4 47  1  0  0  0  0
  5  6  2  0  0  0  0
  5 48  1  0  0  0  0
  6 27  1  0  0  0  0
  6  7  1  0  0  0  0
  7  8  1  0  0  0  0
  7 49  1  0  0  0  0
  7 50  1  0  0  0  0
  8 42  1  6  0  0  0
  8  9  1  0  0  0  0
  8 28  1  0  0  0  0
  9 10  1  0  0  0  0
  9 51  1  0  0  0  0
 10 11  2  0  0  0  0
 10 12  1  0  0  0  0
 12 19  1  0  0  0  0
 12 13  2  0  0  0  0
 13 14  1  0  0  0  0
 13 52  1  0  0  0  0
 14 15  1  0  0  0  0
 14 17  2  0  0  0  0
 15 16  1  0  0  0  0
 15 53  1  0  0  0  0
 15 54  1  0  0  0  0
 16 55  1  0  0  0  0
 17 18  1  0  0  0  0
 17 56  1  0  0  0  0
 18 19  2  0  0  0  0
 18 20  1  0  0  0  0
 19 57  1  0  0  0  0
 20 21  1  0  0  0  0
 20 58  1  0  0  0  0
 21 22  1  0  0  0  0
 21 59  1  0  0  0  0
 21 60  1  0  0  0  0
 22 23  1  0  0  0  0
 22 61  1  0  0  0  0
 22 62  1  0  0  0  0
 23 24  1  0  0  0  0
 23 63  1  0  0  0  0
 23 64  1  0  0  0  0
 24 25  1  0  0  0  0
 24 65  1  0  0  0  0
 24 66  1  0  0  0  0
 25 26  1  0  0  0  0
 26 27  2  0  0  0  0
 27 67  1  0  0  0  0
 28 43  1  6  0  0  0
 28 29  1  0  0  0  0
 28 30  1  0  0  0  0
 29 68  1  0  0  0  0
 30 31  1  0  0  0  0
 30 69  1  0  0  0  0
 30 70  1  0  0  0  0
 31 32  1  0  0  0  0
 31 71  1  0  0  0  0
 31 85  1  0  0  0  0
 32 33  1  0  0  0  0
 32 72  1  0  0  0  0
 32 73  1  0  0  0  0
 33 38  1  0  0  0  0
 33 34  2  0  0  0  0
 34 35  1  0  0  0  0
 34 74  1  0  0  0  0
 35 36  2  0  0  0  0
 35 39  1  0  0  0  0
 36 37  1  0  0  0  0
 36 75  1  0  0  0  0
 37 38  2  0  0  0  0
 37 76  1  0  0  0  0
 38 77  1  0  0  0  0
 39 40  1  0  0  0  0
 39 41  1  0  0  0  0
 39 78  1  0  0  0  0
 40 79  1  0  0  0  0
 40 80  1  0  0  0  0
 40 81  1  0  0  0  0
 41 82  1  0  0  0  0
 41 83  1  0  0  0  0
 41 84  1  0  0  0  0
M  CHG  1  31   1
M  END
>  <s_m_source_file>
BACE_130.smi

>  <i_m_source_file_index>
1

>  <i_lp_mmshare_version>
42013

>  <i_f3d_flags>
0

>  <s_epik_input>
YzEyW2NIXVtjSF1jKE9bQ0gzXSljKFtjSF0yKU9bQ0gyXVtDSDJdW0NIMl1bQ0gyXVtOSF1jM1tjSF1jKFtDSDJdW09IXSlbY0hdYyhbY0hdMylDKD1PKVtOSF1bQ0BASF0oW0NIMl0xKVtDQEhdKFtPSF0pW0NIMl1bTkhdW0NIMl1jNFtjSF1jKFtDSF0oW0NIM10pW0NIM10pW2NIXVtjSF1bY0hdNA==

>  <s_epik_cmdline>
J2VwaWtfcHl0aG9uJywgJy1waCcsICc3LjAnLCAnLXRuJywgJzgnLCAnLW1hJywgJzIwMCcsICctaW1hZScsICc8aW5maWxlLm1hZT4nLCAnLW9tYWUnLCAnPG91dGZpbGUubWFlPic=

>  <r_lp_tautomer_probability>
1

>  <r_epik_Ionization_Penalty>
0.0195

>  <r_epik_Ionization_Penalty_Charging>
0.0191

>  <r_epik_Ionization_Penalty_Neutral>
0.0004

>  <r_epik_State_Penalty>
0.0153

>  <r_epik_Charging_Adjusted_Penalty>
0.0343718

>  <i_epik_Tot_Q>
1

>  <i_epik_Tot_abs_Q>
1

>  <s_lp_Force_Field>
OPLS_2005

>  <r_lp_Energy>
39.3681

>  <b_lp_Chiralities_Consistent>
1

>  <s_lp_Variant>
BACE_130.smi:1-1

>  <chiral flag>
1

>  <version>
0

>  <s_i_glide_gridfile>
second_dock_grid_2

>  <i_i_glide_lignum>
63

>  <i_i_glide_rotatable_bonds>
10

>  <r_i_docking_score>
-5.58952

>  <r_i_glide_ligand_efficiency>
-0.13633

>  <r_i_glide_ligand_efficiency_sa>
-0.470095

>  <r_i_glide_ligand_efficiency_ln>
-1.18584

>  <r_glide_XP_GScore>
-5.60482

>  <r_i_glide_gscore>
-5.60482

>  <r_i_glide_evdw>
-40.3032

>  <r_i_glide_ecoul>
-18.0118

>  <r_i_glide_energy>
-58.315

>  <r_i_glide_einternal>
6.27505

>  <r_i_glide_emodel>
-82.8686

>  <r_glide_XP_HBond>
-0.953661

>  <i_i_glide_confnum>
1

>  <i_i_glide_posenum>
1

>  <r_i_glide_eff_state_penalty>
0.0153

>  <i_glide_XP_PoseRank>
1

$$$$
