BACE_130.smi:1
 OpenBabel09301813003D
Structure written by MMmdl.
 84 87  0  0  1  0  0  0  0  0999 V2000
   29.2330   47.2088   -9.5254 C   0  0  0  0  0  0  0  0  0  0  0  0
   29.1207   46.9984   -8.1251 O   0  0  0  0  0  0  0  0  0  0  0  0
   28.0489   46.2779   -7.6385 C   0  0  0  0  0  0  0  0  0  0  0  0
   27.1320   45.6208   -8.5011 C   0  0  0  0  0  0  0  0  0  0  0  0
   26.0819   44.8395   -7.9890 C   0  0  0  0  0  0  0  0  0  0  0  0
   25.9369   44.6821   -6.6013 C   0  0  0  0  0  0  0  0  0  0  0  0
   24.8482   43.7809   -6.0470 C   0  0  0  0  0  0  0  0  0  0  0  0
   23.4856   44.4708   -5.7870 C   0  0  2  0  0  0  0  0  0  0  0  0
   23.6605   45.6979   -4.9991 N   0  0  0  0  0  0  0  0  0  0  0  0
   23.1041   46.9004   -5.2362 C   0  0  0  0  0  0  0  0  0  0  0  0
   22.2677   47.0957   -6.1176 O   0  0  0  0  0  0  0  0  0  0  0  0
   23.5103   48.0129   -4.2999 C   0  0  0  0  0  0  0  0  0  0  0  0
   22.6358   49.1010   -4.0602 C   0  0  0  0  0  0  0  0  0  0  0  0
   22.9988   50.1426   -3.1748 C   0  0  0  0  0  0  0  0  0  0  0  0
   22.0399   51.2786   -2.8462 C   0  0  0  0  0  0  0  0  0  0  0  0
   21.2600   51.7150   -3.9421 O   0  0  0  0  0  0  0  0  0  0  0  0
   24.2533   50.0951   -2.5337 C   0  0  0  0  0  0  0  0  0  0  0  0
   25.1515   49.0365   -2.7772 C   0  0  0  0  0  0  0  0  0  0  0  0
   24.7780   48.0053   -3.6699 C   0  0  0  0  0  0  0  0  0  0  0  0
   26.3745   49.0382   -2.0889 N   0  0  0  0  0  0  0  0  0  0  0  0
   27.5684   48.4337   -2.6695 C   0  0  0  0  0  0  0  0  0  0  0  0
   28.2270   49.3550   -3.7091 C   0  0  0  0  0  0  0  0  0  0  0  0
   29.5373   48.7881   -4.2847 C   0  0  0  0  0  0  0  0  0  0  0  0
   29.3335   47.9601   -5.5597 C   0  0  0  0  0  0  0  0  0  0  0  0
   28.6435   46.7545   -5.2565 O   0  0  0  0  0  0  0  0  0  0  0  0
   27.8693   46.1523   -6.2289 C   0  0  0  0  0  0  0  0  0  0  0  0
   26.8355   45.3332   -5.7349 C   0  0  0  0  0  0  0  0  0  0  0  0
   22.4408   43.5318   -5.1210 C   0  0  2  0  0  0  0  0  0  0  0  0
   22.9937   42.9506   -3.9527 O   0  0  0  0  0  0  0  0  0  0  0  0
   22.0225   42.3390   -6.0068 C   0  0  0  0  0  0  0  0  0  0  0  0
   20.8739   41.6458   -5.4233 N   0  0  0  0  0  0  0  0  0  0  0  0
   20.9439   40.1840   -5.4628 C   0  0  0  0  0  0  0  0  0  0  0  0
   20.6364   39.5704   -6.8161 C   0  0  0  0  0  0  0  0  0  0  0  0
   19.3082   39.2245   -7.1435 C   0  0  0  0  0  0  0  0  0  0  0  0
   19.0106   38.6012   -8.3745 C   0  0  0  0  0  0  0  0  0  0  0  0
   20.0583   38.3341   -9.2841 C   0  0  0  0  0  0  0  0  0  0  0  0
   21.3847   38.6848   -8.9640 C   0  0  0  0  0  0  0  0  0  0  0  0
   21.6743   39.3011   -7.7316 C   0  0  0  0  0  0  0  0  0  0  0  0
   17.5714   38.2231   -8.7073 C   0  0  0  0  0  0  0  0  0  0  0  0
   17.0673   38.9621   -9.9565 C   0  0  0  0  0  0  0  0  0  0  0  0
   17.3942   36.7020   -8.8411 C   0  0  0  0  0  0  0  0  0  0  0  0
   23.0893   44.7592   -6.7628 H   0  0  0  0  0  0  0  0  0  0  0  0
   21.5594   44.1149   -4.8497 H   0  0  0  0  0  0  0  0  0  0  0  0
   28.3520   47.7173   -9.9224 H   0  0  0  0  0  0  0  0  0  0  0  0
   29.3882   46.2705  -10.0608 H   0  0  0  0  0  0  0  0  0  0  0  0
   30.0959   47.8450   -9.7234 H   0  0  0  0  0  0  0  0  0  0  0  0
   27.2198   45.6835   -9.5740 H   0  0  0  0  0  0  0  0  0  0  0  0
   25.4062   44.3413   -8.6678 H   0  0  0  0  0  0  0  0  0  0  0  0
   25.2363   43.3500   -5.1254 H   0  0  0  0  0  0  0  0  0  0  0  0
   24.7138   42.9513   -6.7405 H   0  0  0  0  0  0  0  0  0  0  0  0
   24.3195   45.6277   -4.2330 H   0  0  0  0  0  0  0  0  0  0  0  0
   21.6666   49.1248   -4.5374 H   0  0  0  0  0  0  0  0  0  0  0  0
   21.3647   50.9460   -2.0569 H   0  0  0  0  0  0  0  0  0  0  0  0
   22.5838   52.1310   -2.4398 H   0  0  0  0  0  0  0  0  0  0  0  0
   20.3863   51.3503   -3.7995 H   0  0  0  0  0  0  0  0  0  0  0  0
   24.5286   50.8787   -1.8421 H   0  0  0  0  0  0  0  0  0  0  0  0
   25.4554   47.1879   -3.8594 H   0  0  0  0  0  0  0  0  0  0  0  0
   26.5488   49.8138   -1.4653 H   0  0  0  0  0  0  0  0  0  0  0  0
   27.3622   47.4516   -3.0904 H   0  0  0  0  0  0  0  0  0  0  0  0
   28.2718   48.2569   -1.8554 H   0  0  0  0  0  0  0  0  0  0  0  0
   28.4487   50.3123   -3.2400 H   0  0  0  0  0  0  0  0  0  0  0  0
   27.5270   49.5773   -4.5157 H   0  0  0  0  0  0  0  0  0  0  0  0
   30.0769   48.2128   -3.5314 H   0  0  0  0  0  0  0  0  0  0  0  0
   30.1937   49.6235   -4.5317 H   0  0  0  0  0  0  0  0  0  0  0  0
   30.3040   47.7128   -5.9923 H   0  0  0  0  0  0  0  0  0  0  0  0
   28.7865   48.5697   -6.2811 H   0  0  0  0  0  0  0  0  0  0  0  0
   26.7299   45.2156   -4.6669 H   0  0  0  0  0  0  0  0  0  0  0  0
   23.6908   43.5142   -3.6359 H   0  0  0  0  0  0  0  0  0  0  0  0
   21.7622   42.6834   -7.0085 H   0  0  0  0  0  0  0  0  0  0  0  0
   22.8630   41.6562   -6.1301 H   0  0  0  0  0  0  0  0  0  0  0  0
   20.7644   41.9411   -4.4577 H   0  0  0  0  0  0  0  0  0  0  0  0
   21.9154   39.8341   -5.1083 H   0  0  0  0  0  0  0  0  0  0  0  0
   20.2152   39.7786   -4.7607 H   0  0  0  0  0  0  0  0  0  0  0  0
   18.5158   39.4305   -6.4375 H   0  0  0  0  0  0  0  0  0  0  0  0
   19.8507   37.8541  -10.2287 H   0  0  0  0  0  0  0  0  0  0  0  0
   22.1832   38.4700   -9.6599 H   0  0  0  0  0  0  0  0  0  0  0  0
   22.6949   39.5553   -7.4875 H   0  0  0  0  0  0  0  0  0  0  0  0
   16.9444   38.5384   -7.8715 H   0  0  0  0  0  0  0  0  0  0  0  0
   17.1336   40.0412   -9.8218 H   0  0  0  0  0  0  0  0  0  0  0  0
   16.0237   38.7203  -10.1602 H   0  0  0  0  0  0  0  0  0  0  0  0
   17.6503   38.7016  -10.8401 H   0  0  0  0  0  0  0  0  0  0  0  0
   17.6616   36.1984   -7.9124 H   0  0  0  0  0  0  0  0  0  0  0  0
   18.0101   36.2895   -9.6399 H   0  0  0  0  0  0  0  0  0  0  0  0
   16.3556   36.4504   -9.0567 H   0  0  0  0  0  0  0  0  0  0  0  0
  1  2  1  0  0  0  0
  1 44  1  0  0  0  0
  1 45  1  0  0  0  0
  1 46  1  0  0  0  0
  2  3  1  0  0  0  0
  3 26  1  0  0  0  0
  3  4  2  0  0  0  0
  4  5  1  0  0  0  0
  4 47  1  0  0  0  0
  5  6  2  0  0  0  0
  5 48  1  0  0  0  0
  6 27  1  0  0  0  0
  6  7  1  0  0  0  0
  7  8  1  0  0  0  0
  7 49  1  0  0  0  0
  7 50  1  0  0  0  0
  8 42  1  6  0  0  0
  8  9  1  0  0  0  0
  8 28  1  0  0  0  0
  9 10  1  0  0  0  0
  9 51  1  0  0  0  0
 10 11  2  0  0  0  0
 10 12  1  0  0  0  0
 12 19  1  0  0  0  0
 12 13  2  0  0  0  0
 13 14  1  0  0  0  0
 13 52  1  0  0  0  0
 14 15  1  0  0  0  0
 14 17  2  0  0  0  0
 15 16  1  0  0  0  0
 15 53  1  0  0  0  0
 15 54  1  0  0  0  0
 16 55  1  0  0  0  0
 17 18  1  0  0  0  0
 17 56  1  0  0  0  0
 18 19  2  0  0  0  0
 18 20  1  0  0  0  0
 19 57  1  0  0  0  0
 20 21  1  0  0  0  0
 20 58  1  0  0  0  0
 21 22  1  0  0  0  0
 21 59  1  0  0  0  0
 21 60  1  0  0  0  0
 22 23  1  0  0  0  0
 22 61  1  0  0  0  0
 22 62  1  0  0  0  0
 23 24  1  0  0  0  0
 23 63  1  0  0  0  0
 23 64  1  0  0  0  0
 24 25  1  0  0  0  0
 24 65  1  0  0  0  0
 24 66  1  0  0  0  0
 25 26  1  0  0  0  0
 26 27  2  0  0  0  0
 27 67  1  0  0  0  0
 28 43  1  1  0  0  0
 28 29  1  0  0  0  0
 28 30  1  0  0  0  0
 29 68  1  0  0  0  0
 30 31  1  0  0  0  0
 30 69  1  0  0  0  0
 30 70  1  0  0  0  0
 31 32  1  0  0  0  0
 31 71  1  0  0  0  0
 32 33  1  0  0  0  0
 32 72  1  0  0  0  0
 32 73  1  0  0  0  0
 33 38  1  0  0  0  0
 33 34  2  0  0  0  0
 34 35  1  0  0  0  0
 34 74  1  0  0  0  0
 35 36  2  0  0  0  0
 35 39  1  0  0  0  0
 36 37  1  0  0  0  0
 36 75  1  0  0  0  0
 37 38  2  0  0  0  0
 37 76  1  0  0  0  0
 38 77  1  0  0  0  0
 39 40  1  0  0  0  0
 39 41  1  0  0  0  0
 39 78  1  0  0  0  0
 40 79  1  0  0  0  0
 40 80  1  0  0  0  0
 40 81  1  0  0  0  0
 41 82  1  0  0  0  0
 41 83  1  0  0  0  0
 41 84  1  0  0  0  0
M  END
>  <s_m_source_file>
BACE_130.smi

>  <i_m_source_file_index>
1

>  <i_lp_mmshare_version>
42013

>  <i_f3d_flags>
0

>  <s_epik_input>
YzEyW2NIXVtjSF1jKE9bQ0gzXSljKFtjSF0yKU9bQ0gyXVtDSDJdW0NIMl1bQ0gyXVtOSF1jM1tjSF1jKFtDSDJdW09IXSlbY0hdYyhbY0hdMylDKD1PKVtOSF1bQ0BASF0oW0NIMl0xKVtDQEhdKFtPSF0pW0NIMl1bTkhdW0NIMl1jNFtjSF1jKFtDSF0oW0NIM10pW0NIM10pW2NIXVtjSF1bY0hdNA==

>  <s_epik_cmdline>
J2VwaWtfcHl0aG9uJywgJy1waCcsICc3LjAnLCAnLXRuJywgJzgnLCAnLW1hJywgJzIwMCcsICctaW1hZScsICc8aW5maWxlLm1hZT4nLCAnLW9tYWUnLCAnPG91dGZpbGUubWFlPic=

>  <r_lp_tautomer_probability>
1

>  <r_epik_Ionization_Penalty>
2.0444

>  <r_epik_Ionization_Penalty_Charging>
0.0000

>  <r_epik_Ionization_Penalty_Neutral>
2.0444

>  <r_epik_State_Penalty>
2.1759

>  <r_epik_Charging_Adjusted_Penalty>
2.17586

>  <i_epik_Tot_Q>
0

>  <i_epik_Tot_abs_Q>
0

>  <s_lp_Force_Field>
OPLS_2005

>  <r_lp_Energy>
46.621

>  <b_lp_Chiralities_Consistent>
1

>  <s_lp_Variant>
BACE_130.smi:1-2

>  <chiral flag>
1

>  <version>
0

>  <s_i_glide_gridfile>
second_dock_grid_2

>  <i_i_glide_lignum>
64

>  <i_i_glide_rotatable_bonds>
10

>  <r_i_docking_score>
-2.58568

>  <r_i_glide_ligand_efficiency>
-0.0630653

>  <r_i_glide_ligand_efficiency_sa>
-0.217463

>  <r_i_glide_ligand_efficiency_ln>
-0.54856

>  <r_glide_XP_GScore>
-4.76158

>  <r_i_glide_gscore>
-4.76158

>  <r_i_glide_evdw>
-41.5874

>  <r_i_glide_ecoul>
-12.0748

>  <r_i_glide_energy>
-53.6622

>  <r_i_glide_einternal>
0

>  <r_i_glide_emodel>
-77.1414

>  <r_glide_XP_HBond>
-0.520043

>  <i_i_glide_confnum>
1

>  <i_i_glide_posenum>
6

>  <r_i_glide_eff_state_penalty>
2.1759

>  <i_glide_XP_PoseRank>
1

$$$$
