BACE_48.smi:1
 OpenBabel09301813003D
Structure written by MMmdl.
 88 90  0  0  1  0  0  0  0  0999 V2000
   20.3737   44.3677  -10.7217 C   0  0  0  0  0  0  0  0  0  0  0  0
   21.8326   43.9606  -10.4429 C   0  0  2  0  0  0  0  0  0  0  0  0
   22.4143   43.0462  -11.5488 C   0  0  0  0  0  0  0  0  0  0  0  0
   21.6554   41.7397  -11.8391 C   0  0  0  0  0  0  0  0  0  0  0  0
   21.8221   40.8515  -10.7518 O   0  0  0  0  0  0  0  0  0  0  0  0
   21.1999   39.5922  -10.9382 C   0  0  0  0  0  0  0  0  0  0  0  0
   21.3929   38.7925   -9.6443 C   0  0  0  0  0  0  0  0  0  0  0  0
   20.6330   39.4230   -8.4689 C   0  0  0  0  0  0  0  0  0  0  0  0
   21.1680   38.9930   -7.0999 C   0  0  0  0  0  0  0  0  0  0  0  0
   20.5311   39.7461   -6.0311 N   0  0  0  0  0  0  0  0  0  0  0  0
   21.1989   40.8073   -5.4128 C   0  0  0  0  0  0  0  0  0  0  0  0
   22.1219   41.6296   -6.0962 C   0  0  0  0  0  0  0  0  0  0  0  0
   22.6927   42.7209   -5.4060 C   0  0  0  0  0  0  0  0  0  0  0  0
   22.3516   42.9148   -4.0523 C   0  0  0  0  0  0  0  0  0  0  0  0
   21.4191   42.0426   -3.4630 C   0  0  0  0  0  0  0  0  0  0  0  0
   20.9536   42.2553   -2.0395 C   0  0  0  0  0  0  0  0  0  0  0  0
   20.8599   41.0097   -4.1245 N   0  0  0  0  0  0  0  0  0  0  0  0
   23.6354   43.6776   -6.0738 C   0  0  0  0  0  0  0  0  0  0  0  0
   24.7755   43.8081   -5.6416 O   0  0  0  0  0  0  0  0  0  0  0  0
   23.2071   44.4382   -7.0974 N   0  0  0  0  0  0  0  0  0  0  0  0
   21.9649   44.4559   -7.8802 C   0  0  1  0  0  0  0  0  0  0  0  0
   22.0305   43.3919   -9.0174 C   0  0  0  0  0  0  0  0  0  0  0  0
   20.6537   44.5745   -7.0178 C   0  0  2  0  0  0  0  0  0  0  0  0
   19.6478   43.6768   -7.4387 O   0  0  0  0  0  0  0  0  0  0  0  0
   20.0308   45.9780   -7.0754 C   0  0  0  0  0  0  0  0  0  0  0  0
   20.8524   46.9591   -6.3546 N   0  0  0  0  0  0  0  0  0  0  0  0
   20.6735   48.3750   -6.7242 C   0  0  0  0  0  0  0  0  0  0  0  0
   21.2952   48.6081   -8.1195 C   0  0  0  0  0  0  0  0  0  0  0  0
   19.1708   48.7458   -6.7304 C   0  0  0  0  0  0  0  0  0  0  0  0
   21.3789   49.2468   -5.7008 C   0  0  0  0  0  0  0  0  0  0  0  0
   21.9779   48.8913   -4.4587 C   0  0  0  0  0  0  0  0  0  0  0  0
   22.3265   50.0867   -3.8907 C   0  0  0  0  0  0  0  0  0  0  0  0
   22.8740   50.5066   -2.5540 C   0  0  0  0  0  0  0  0  0  0  0  0
   24.3193   50.0579   -2.1748 C   0  0  0  0  0  0  0  0  0  0  0  0
   25.2918   51.2224   -2.4447 C   0  0  0  0  0  0  0  0  0  0  0  0
   24.8102   48.8223   -2.9601 C   0  0  0  0  0  0  0  0  0  0  0  0
   24.3688   49.7131   -0.6706 C   0  0  0  0  0  0  0  0  0  0  0  0
   22.0481   51.0878   -4.7551 O   0  0  0  0  0  0  0  0  0  0  0  0
   21.4448   50.5501   -5.8941 N   0  0  0  0  0  0  0  0  0  0  0  0
   22.4301   44.8730  -10.5055 H   0  0  0  0  0  0  0  0  0  0  0  0
   22.0629   45.4145   -8.3881 H   0  0  0  0  0  0  0  0  0  0  0  0
   20.8279   44.3529   -5.9677 H   0  0  0  0  0  0  0  0  0  0  0  0
   19.6887   43.5269  -10.5957 H   0  0  0  0  0  0  0  0  0  0  0  0
   20.2583   44.7449  -11.7384 H   0  0  0  0  0  0  0  0  0  0  0  0
   20.0464   45.1577  -10.0474 H   0  0  0  0  0  0  0  0  0  0  0  0
   22.4587   43.6274  -12.4667 H   0  0  0  0  0  0  0  0  0  0  0  0
   23.4518   42.8070  -11.3173 H   0  0  0  0  0  0  0  0  0  0  0  0
   20.5986   41.9272  -12.0240 H   0  0  0  0  0  0  0  0  0  0  0  0
   22.0597   41.2843  -12.7441 H   0  0  0  0  0  0  0  0  0  0  0  0
   20.1386   39.7124  -11.1592 H   0  0  0  0  0  0  0  0  0  0  0  0
   21.6593   39.0748  -11.7799 H   0  0  0  0  0  0  0  0  0  0  0  0
   21.0649   37.7612   -9.7800 H   0  0  0  0  0  0  0  0  0  0  0  0
   22.4594   38.7475   -9.4215 H   0  0  0  0  0  0  0  0  0  0  0  0
   20.6975   40.5052   -8.5365 H   0  0  0  0  0  0  0  0  0  0  0  0
   19.5721   39.1895   -8.5483 H   0  0  0  0  0  0  0  0  0  0  0  0
   20.9714   37.9327   -6.9403 H   0  0  0  0  0  0  0  0  0  0  0  0
   22.2511   39.1114   -7.0498 H   0  0  0  0  0  0  0  0  0  0  0  0
   19.8391   39.2660   -5.4740 H   0  0  0  0  0  0  0  0  0  0  0  0
   22.3796   41.4409   -7.1267 H   0  0  0  0  0  0  0  0  0  0  0  0
   22.7692   43.7382   -3.4922 H   0  0  0  0  0  0  0  0  0  0  0  0
   21.7865   42.5510   -1.4040 H   0  0  0  0  0  0  0  0  0  0  0  0
   20.5116   41.3468   -1.6321 H   0  0  0  0  0  0  0  0  0  0  0  0
   20.2011   43.0443   -2.0123 H   0  0  0  0  0  0  0  0  0  0  0  0
   23.9190   45.0680   -7.4389 H   0  0  0  0  0  0  0  0  0  0  0  0
   21.3288   42.5799   -8.8526 H   0  0  0  0  0  0  0  0  0  0  0  0
   23.0106   42.9115   -8.9920 H   0  0  0  0  0  0  0  0  0  0  0  0
   19.8531   42.8124   -7.1119 H   0  0  0  0  0  0  0  0  0  0  0  0
   19.8899   46.2533   -8.1165 H   0  0  0  0  0  0  0  0  0  0  0  0
   19.0335   45.9520   -6.6329 H   0  0  0  0  0  0  0  0  0  0  0  0
   21.8258   46.7168   -6.5017 H   0  0  0  0  0  0  0  0  0  0  0  0
   21.2077   49.6510   -8.4220 H   0  0  0  0  0  0  0  0  0  0  0  0
   20.8091   48.0210   -8.8976 H   0  0  0  0  0  0  0  0  0  0  0  0
   22.3554   48.3530   -8.1283 H   0  0  0  0  0  0  0  0  0  0  0  0
   19.0235   49.8045   -6.9314 H   0  0  0  0  0  0  0  0  0  0  0  0
   18.7114   48.5365   -5.7645 H   0  0  0  0  0  0  0  0  0  0  0  0
   18.6098   48.2066   -7.4957 H   0  0  0  0  0  0  0  0  0  0  0  0
   22.0602   47.9044   -4.0398 H   0  0  0  0  0  0  0  0  0  0  0  0
   22.7894   51.5904   -2.4535 H   0  0  0  0  0  0  0  0  0  0  0  0
   22.1745   50.1508   -1.8015 H   0  0  0  0  0  0  0  0  0  0  0  0
   26.3163   50.9503   -2.1900 H   0  0  0  0  0  0  0  0  0  0  0  0
   25.0380   52.1052   -1.8586 H   0  0  0  0  0  0  0  0  0  0  0  0
   25.2829   51.5097   -3.4963 H   0  0  0  0  0  0  0  0  0  0  0  0
   24.8526   49.0106   -4.0337 H   0  0  0  0  0  0  0  0  0  0  0  0
   24.1626   47.9606   -2.7943 H   0  0  0  0  0  0  0  0  0  0  0  0
   25.8155   48.5303   -2.6529 H   0  0  0  0  0  0  0  0  0  0  0  0
   25.3796   49.4489   -0.3570 H   0  0  0  0  0  0  0  0  0  0  0  0
   23.7296   48.8601   -0.4417 H   0  0  0  0  0  0  0  0  0  0  0  0
   24.0479   50.5496   -0.0482 H   0  0  0  0  0  0  0  0  0  0  0  0
  1  2  1  0  0  0  0
  1 43  1  0  0  0  0
  1 44  1  0  0  0  0
  1 45  1  0  0  0  0
  2 40  1  6  0  0  0
  2 22  1  0  0  0  0
  2  3  1  0  0  0  0
  3  4  1  0  0  0  0
  3 46  1  0  0  0  0
  3 47  1  0  0  0  0
  4  5  1  0  0  0  0
  4 48  1  0  0  0  0
  4 49  1  0  0  0  0
  5  6  1  0  0  0  0
  6  7  1  0  0  0  0
  6 50  1  0  0  0  0
  6 51  1  0  0  0  0
  7  8  1  0  0  0  0
  7 52  1  0  0  0  0
  7 53  1  0  0  0  0
  8  9  1  0  0  0  0
  8 54  1  0  0  0  0
  8 55  1  0  0  0  0
  9 10  1  0  0  0  0
  9 56  1  0  0  0  0
  9 57  1  0  0  0  0
 10 11  1  0  0  0  0
 10 58  1  0  0  0  0
 11 17  1  0  0  0  0
 11 12  2  0  0  0  0
 12 13  1  0  0  0  0
 12 59  1  0  0  0  0
 13 14  2  0  0  0  0
 13 18  1  0  0  0  0
 14 15  1  0  0  0  0
 14 60  1  0  0  0  0
 15 16  1  0  0  0  0
 15 17  2  0  0  0  0
 16 61  1  0  0  0  0
 16 62  1  0  0  0  0
 16 63  1  0  0  0  0
 18 19  2  0  0  0  0
 18 20  1  0  0  0  0
 20 21  1  0  0  0  0
 20 64  1  0  0  0  0
 21 41  1  6  0  0  0
 21 22  1  0  0  0  0
 21 23  1  0  0  0  0
 22 65  1  0  0  0  0
 22 66  1  0  0  0  0
 23 42  1  1  0  0  0
 23 24  1  0  0  0  0
 23 25  1  0  0  0  0
 24 67  1  0  0  0  0
 25 26  1  0  0  0  0
 25 68  1  0  0  0  0
 25 69  1  0  0  0  0
 26 27  1  0  0  0  0
 26 70  1  0  0  0  0
 27 28  1  0  0  0  0
 27 29  1  0  0  0  0
 27 30  1  0  0  0  0
 28 71  1  0  0  0  0
 28 72  1  0  0  0  0
 28 73  1  0  0  0  0
 29 74  1  0  0  0  0
 29 75  1  0  0  0  0
 29 76  1  0  0  0  0
 30 39  2  0  0  0  0
 30 31  1  0  0  0  0
 31 32  2  0  0  0  0
 31 77  1  0  0  0  0
 32 33  1  0  0  0  0
 32 38  1  0  0  0  0
 33 34  1  0  0  0  0
 33 78  1  0  0  0  0
 33 79  1  0  0  0  0
 34 35  1  0  0  0  0
 34 36  1  0  0  0  0
 34 37  1  0  0  0  0
 35 80  1  0  0  0  0
 35 81  1  0  0  0  0
 35 82  1  0  0  0  0
 36 83  1  0  0  0  0
 36 84  1  0  0  0  0
 36 85  1  0  0  0  0
 37 86  1  0  0  0  0
 37 87  1  0  0  0  0
 37 88  1  0  0  0  0
 38 39  1  0  0  0  0
M  END
>  <s_m_source_file>
BACE_48.smi

>  <i_m_source_file_index>
1

>  <i_lp_mmshare_version>
42013

>  <i_f3d_flags>
0

>  <s_epik_input>
W05IXTFbQ0gyXVtDSDJdW0NIMl1bQ0gyXU9bQ0gyXVtDSDJdW0NAQEhdKFtDSDNdKVtDSDJdW0NASF0oW05IXUMoPU8pYyhbY0hdYzEyKVtjSF1jKG4yKVtDSDNdKVtDQEhdKFtPSF0pW0NIMl1bTkhdQyhbQ0gzXSkoW0NIM10pYzNbY0hdYyhvbjMpW0NIMl1DKFtDSDNdKShbQ0gzXSlbQ0gzXQ==

>  <s_epik_cmdline>
J2VwaWtfcHl0aG9uJywgJy1waCcsICc3LjAnLCAnLXRuJywgJzgnLCAnLW1hJywgJzIwMCcsICctaW1hZScsICc8aW5maWxlLm1hZT4nLCAnLW9tYWUnLCAnPG91dGZpbGUubWFlPic=

>  <r_lp_tautomer_probability>
1

>  <r_epik_Ionization_Penalty>
0.7157

>  <r_epik_Ionization_Penalty_Charging>
0.0000

>  <r_epik_Ionization_Penalty_Neutral>
0.7157

>  <r_epik_State_Penalty>
0.7724

>  <r_epik_Charging_Adjusted_Penalty>
0.772402

>  <i_epik_Tot_Q>
0

>  <i_epik_Tot_abs_Q>
0

>  <s_lp_Force_Field>
OPLS_2005

>  <r_lp_Energy>
39.7757

>  <b_lp_Chiralities_Consistent>
1

>  <s_lp_Variant>
BACE_48.smi:1-2

>  <chiral flag>
1

>  <version>
0

>  <s_i_glide_gridfile>
second_dock_grid_2

>  <i_i_glide_lignum>
6

>  <i_i_glide_rotatable_bonds>
8

>  <r_i_docking_score>
-2.29165

>  <r_i_glide_ligand_efficiency>
-0.0587604

>  <r_i_glide_ligand_efficiency_sa>
-0.199269

>  <r_i_glide_ligand_efficiency_ln>
-0.491396

>  <r_glide_XP_GScore>
-3.06405

>  <r_i_glide_gscore>
-3.06405

>  <r_i_glide_evdw>
-42.6209

>  <r_i_glide_ecoul>
-1.33391

>  <r_i_glide_energy>
-43.9548

>  <r_i_glide_einternal>
9.22492

>  <r_i_glide_emodel>
-53.4009

>  <r_glide_XP_HBond>
-0.572563

>  <i_i_glide_confnum>
1

>  <i_i_glide_posenum>
4

>  <r_i_glide_eff_state_penalty>
0.7724

>  <i_glide_XP_PoseRank>
1

$$$$
