BACE_81.smi:1
 OpenBabel09301813003D
Structure written by MMmdl.
 91 95  0  0  1  0  0  0  0  0999 V2000
   23.8706   44.2360  -11.1519 C   0  0  0  0  0  0  0  0  0  0  0  0
   23.0608   43.6005  -10.0006 C   0  0  2  0  0  0  0  0  0  0  0  0
   23.8500   43.5769   -8.6579 C   0  0  0  0  0  0  0  0  0  0  0  0
   24.3964   44.9229   -8.1160 C   0  0  0  0  0  0  0  0  0  0  0  0
   23.3532   45.9466   -7.6127 C   0  0  0  0  0  0  0  0  0  0  0  0
   22.9113   45.7628   -6.1403 C   0  0  0  0  0  0  0  0  0  0  0  0
   21.9215   46.8470   -5.6393 C   0  0  0  0  0  0  0  0  0  0  0  0
   20.4218   46.4677   -5.6403 C   0  0  0  0  0  0  0  0  0  0  0  0
   19.9157   45.9614   -6.9949 C   0  0  0  0  0  0  0  0  0  0  0  0
   18.5006   45.7788   -7.0247 O   0  0  0  0  0  0  0  0  0  0  0  0
   17.9687   45.0881   -8.1009 C   0  0  0  0  0  0  0  0  0  0  0  0
   16.5711   44.9038   -8.1514 C   0  0  0  0  0  0  0  0  0  0  0  0
   15.9643   44.1805   -9.2072 C   0  0  0  0  0  0  0  0  0  0  0  0
   16.7767   43.6089  -10.2163 C   0  0  0  0  0  0  0  0  0  0  0  0
   18.1784   43.7643  -10.1722 C   0  0  0  0  0  0  0  0  0  0  0  0
   18.7521   44.5385   -9.1440 C   0  0  0  0  0  0  0  0  0  0  0  0
   19.0755   43.1274  -11.1962 C   0  0  0  0  0  0  0  0  0  0  0  0
   18.7879   43.1194  -12.3934 O   0  0  0  0  0  0  0  0  0  0  0  0
   20.1860   42.5785  -10.6663 N   0  0  0  0  0  0  0  0  0  0  0  0
   21.3721   42.0560  -11.3455 C   0  0  1  0  0  0  0  0  0  0  0  0
   22.5963   42.1636  -10.3842 C   0  0  0  0  0  0  0  0  0  0  0  0
   21.1106   40.6231  -11.8985 C   0  0  2  0  0  0  0  0  0  0  0  0
   20.3686   40.6956  -13.1028 O   0  0  0  0  0  0  0  0  0  0  0  0
   20.3238   39.7322  -10.9120 C   0  0  0  0  0  0  0  0  0  0  0  0
   21.0530   39.5640   -9.6504 N   0  0  0  0  0  0  0  0  0  0  0  0
   20.3124   39.2054   -8.4311 C   0  0  0  0  0  0  0  0  0  0  0  0
   20.5265   40.0613   -7.2057 C   0  0  0  0  0  0  0  0  0  0  0  0
   21.1054   38.6679   -7.2639 C   0  0  0  0  0  0  0  0  0  0  0  0
   18.9193   38.6361   -8.6587 C   0  0  0  0  0  0  0  0  0  0  0  0
   17.7525   39.3951   -8.4096 C   0  0  0  0  0  0  0  0  0  0  0  0
   16.4763   38.8092   -8.6179 C   0  0  0  0  0  0  0  0  0  0  0  0
   16.4555   37.4657   -9.0672 C   0  0  0  0  0  0  0  0  0  0  0  0
   17.6720   36.7877   -9.2786 C   0  0  0  0  0  0  0  0  0  0  0  0
   18.8802   37.3517   -9.0777 N   0  0  0  0  0  0  0  0  0  0  0  0
   15.1518   39.5680   -8.3747 C   0  0  0  0  0  0  0  0  0  0  0  0
   14.0448   39.2021   -9.3941 C   0  0  0  0  0  0  0  0  0  0  0  0
   14.6105   39.2361   -6.9650 C   0  0  0  0  0  0  0  0  0  0  0  0
   15.3948   41.0911   -8.4821 C   0  0  0  0  0  0  0  0  0  0  0  0
   14.5099   44.0138   -9.2402 C   0  0  0  0  0  0  0  0  0  0  0  0
   13.5917   44.5480   -8.4323 N   0  0  0  0  0  0  0  0  0  0  0  0
   12.3723   44.0745   -8.8939 C   0  0  0  0  0  0  0  0  0  0  0  0
   12.6137   43.2665   -9.9727 C   0  0  0  0  0  0  0  0  0  0  0  0
   13.9618   43.2194  -10.2029 O   0  0  0  0  0  0  0  0  0  0  0  0
   22.1779   44.2171   -9.8424 H   0  0  0  0  0  0  0  0  0  0  0  0
   21.5520   42.7041  -12.2036 H   0  0  0  0  0  0  0  0  0  0  0  0
   22.0660   40.1430  -12.1146 H   0  0  0  0  0  0  0  0  0  0  0  0
   24.0818   45.2887  -10.9667 H   0  0  0  0  0  0  0  0  0  0  0  0
   23.3288   44.1990  -12.0962 H   0  0  0  0  0  0  0  0  0  0  0  0
   24.8228   43.7257  -11.3014 H   0  0  0  0  0  0  0  0  0  0  0  0
   23.2303   43.1250   -7.8826 H   0  0  0  0  0  0  0  0  0  0  0  0
   24.6989   42.9019   -8.7761 H   0  0  0  0  0  0  0  0  0  0  0  0
   25.0129   45.3958   -8.8794 H   0  0  0  0  0  0  0  0  0  0  0  0
   25.0938   44.7115   -7.3046 H   0  0  0  0  0  0  0  0  0  0  0  0
   22.4954   45.9663   -8.2816 H   0  0  0  0  0  0  0  0  0  0  0  0
   23.8036   46.9365   -7.6973 H   0  0  0  0  0  0  0  0  0  0  0  0
   23.8054   45.8168   -5.5178 H   0  0  0  0  0  0  0  0  0  0  0  0
   22.5053   44.7649   -5.9730 H   0  0  0  0  0  0  0  0  0  0  0  0
   22.0663   47.7703   -6.2016 H   0  0  0  0  0  0  0  0  0  0  0  0
   22.1871   47.0993   -4.6119 H   0  0  0  0  0  0  0  0  0  0  0  0
   19.8399   47.3402   -5.3412 H   0  0  0  0  0  0  0  0  0  0  0  0
   20.2357   45.7061   -4.8821 H   0  0  0  0  0  0  0  0  0  0  0  0
   20.4164   45.0093   -7.1673 H   0  0  0  0  0  0  0  0  0  0  0  0
   20.1978   46.6606   -7.7838 H   0  0  0  0  0  0  0  0  0  0  0  0
   15.9668   45.3274   -7.3623 H   0  0  0  0  0  0  0  0  0  0  0  0
   16.3330   43.0323  -11.0152 H   0  0  0  0  0  0  0  0  0  0  0  0
   19.8197   44.6826   -9.1705 H   0  0  0  0  0  0  0  0  0  0  0  0
   20.2618   42.6237   -9.6602 H   0  0  0  0  0  0  0  0  0  0  0  0
   23.4489   41.6287  -10.8038 H   0  0  0  0  0  0  0  0  0  0  0  0
   22.3480   41.6250   -9.4685 H   0  0  0  0  0  0  0  0  0  0  0  0
   20.0278   39.8359  -13.2972 H   0  0  0  0  0  0  0  0  0  0  0  0
   20.1184   38.7642  -11.3707 H   0  0  0  0  0  0  0  0  0  0  0  0
   19.3581   40.1943  -10.7076 H   0  0  0  0  0  0  0  0  0  0  0  0
   21.8699   38.9728   -9.7661 H   0  0  0  0  0  0  0  0  0  0  0  0
   21.2184   40.8993   -7.2898 H   0  0  0  0  0  0  0  0  0  0  0  0
   19.6719   40.2259   -6.5493 H   0  0  0  0  0  0  0  0  0  0  0  0
   20.6379   37.9008   -6.6464 H   0  0  0  0  0  0  0  0  0  0  0  0
   22.1843   38.5742   -7.3869 H   0  0  0  0  0  0  0  0  0  0  0  0
   17.8666   40.4098   -8.0615 H   0  0  0  0  0  0  0  0  0  0  0  0
   15.5266   36.9462   -9.2495 H   0  0  0  0  0  0  0  0  0  0  0  0
   17.6734   35.7622   -9.6176 H   0  0  0  0  0  0  0  0  0  0  0  0
   14.3357   39.4432  -10.4175 H   0  0  0  0  0  0  0  0  0  0  0  0
   13.1240   39.7523   -9.1954 H   0  0  0  0  0  0  0  0  0  0  0  0
   13.7879   38.1425   -9.3556 H   0  0  0  0  0  0  0  0  0  0  0  0
   15.2938   39.5439   -6.1733 H   0  0  0  0  0  0  0  0  0  0  0  0
   14.4383   38.1653   -6.8479 H   0  0  0  0  0  0  0  0  0  0  0  0
   13.6618   39.7387   -6.7721 H   0  0  0  0  0  0  0  0  0  0  0  0
   14.4718   41.6545   -8.3388 H   0  0  0  0  0  0  0  0  0  0  0  0
   16.1015   41.4537   -7.7355 H   0  0  0  0  0  0  0  0  0  0  0  0
   15.7896   41.3620   -9.4623 H   0  0  0  0  0  0  0  0  0  0  0  0
   11.4390   44.3468   -8.4237 H   0  0  0  0  0  0  0  0  0  0  0  0
   11.9852   42.6932  -10.6381 H   0  0  0  0  0  0  0  0  0  0  0  0
  1  2  1  0  0  0  0
  1 47  1  0  0  0  0
  1 48  1  0  0  0  0
  1 49  1  0  0  0  0
  2 44  1  1  0  0  0
  2 21  1  0  0  0  0
  2  3  1  0  0  0  0
  3  4  1  0  0  0  0
  3 50  1  0  0  0  0
  3 51  1  0  0  0  0
  4  5  1  0  0  0  0
  4 52  1  0  0  0  0
  4 53  1  0  0  0  0
  5  6  1  0  0  0  0
  5 54  1  0  0  0  0
  5 55  1  0  0  0  0
  6  7  1  0  0  0  0
  6 56  1  0  0  0  0
  6 57  1  0  0  0  0
  7  8  1  0  0  0  0
  7 58  1  0  0  0  0
  7 59  1  0  0  0  0
  8  9  1  0  0  0  0
  8 60  1  0  0  0  0
  8 61  1  0  0  0  0
  9 10  1  0  0  0  0
  9 62  1  0  0  0  0
  9 63  1  0  0  0  0
 10 11  1  0  0  0  0
 11 16  1  0  0  0  0
 11 12  2  0  0  0  0
 12 13  1  0  0  0  0
 12 64  1  0  0  0  0
 13 14  2  0  0  0  0
 13 39  1  0  0  0  0
 14 15  1  0  0  0  0
 14 65  1  0  0  0  0
 15 16  2  0  0  0  0
 15 17  1  0  0  0  0
 16 66  1  0  0  0  0
 17 18  2  0  0  0  0
 17 19  1  0  0  0  0
 19 20  1  0  0  0  0
 19 67  1  0  0  0  0
 20 45  1  6  0  0  0
 20 21  1  0  0  0  0
 20 22  1  0  0  0  0
 21 68  1  0  0  0  0
 21 69  1  0  0  0  0
 22 46  1  6  0  0  0
 22 23  1  0  0  0  0
 22 24  1  0  0  0  0
 23 70  1  0  0  0  0
 24 25  1  0  0  0  0
 24 71  1  0  0  0  0
 24 72  1  0  0  0  0
 25 26  1  0  0  0  0
 25 73  1  0  0  0  0
 26 28  1  0  0  0  0
 26 27  1  0  0  0  0
 26 29  1  0  0  0  0
 27 28  1  0  0  0  0
 27 74  1  0  0  0  0
 27 75  1  0  0  0  0
 28 76  1  0  0  0  0
 28 77  1  0  0  0  0
 29 34  1  0  0  0  0
 29 30  2  0  0  0  0
 30 31  1  0  0  0  0
 30 78  1  0  0  0  0
 31 32  2  0  0  0  0
 31 35  1  0  0  0  0
 32 33  1  0  0  0  0
 32 79  1  0  0  0  0
 33 34  2  0  0  0  0
 33 80  1  0  0  0  0
 35 36  1  0  0  0  0
 35 37  1  0  0  0  0
 35 38  1  0  0  0  0
 36 81  1  0  0  0  0
 36 82  1  0  0  0  0
 36 83  1  0  0  0  0
 37 84  1  0  0  0  0
 37 85  1  0  0  0  0
 37 86  1  0  0  0  0
 38 87  1  0  0  0  0
 38 88  1  0  0  0  0
 38 89  1  0  0  0  0
 39 43  1  0  0  0  0
 39 40  2  0  0  0  0
 40 41  1  0  0  0  0
 41 42  2  0  0  0  0
 41 90  1  0  0  0  0
 42 43  1  0  0  0  0
 42 91  1  0  0  0  0
M  END
>  <s_m_source_file>
BACE_81.smi

>  <i_m_source_file_index>
1

>  <i_lp_mmshare_version>
42013

>  <i_f3d_flags>
0

>  <s_epik_input>
TzFbQ0gyXVtDSDJdW0NIMl1bQ0gyXVtDSDJdW0NIMl1bQ0gyXVtDQEBIXShbQ0gzXSlbQ0gyXVtDQEhdKFtOSF1DKD1PKWMoW2NIXTIpW2NIXWMoW2NIXWMxMiktYzNuW2NIXVtjSF1vMylbQ0BIXShbT0hdKVtDSDJdW05IXUM0KFtDSDJdW0NIMl00KWM1W2NIXWMoW2NIXVtjSF1uNSlDKFtDSDNdKShbQ0gzXSlbQ0gzXQ==

>  <s_epik_cmdline>
J2VwaWtfcHl0aG9uJywgJy1waCcsICc3LjAnLCAnLXRuJywgJzgnLCAnLW1hJywgJzIwMCcsICctaW1hZScsICc8aW5maWxlLm1hZT4nLCAnLW9tYWUnLCAnPG91dGZpbGUubWFlPic=

>  <r_lp_tautomer_probability>
1

>  <r_epik_Ionization_Penalty>
0.2176

>  <r_epik_Ionization_Penalty_Charging>
0.0000

>  <r_epik_Ionization_Penalty_Neutral>
0.2176

>  <r_epik_State_Penalty>
0.0835

>  <r_epik_Charging_Adjusted_Penalty>
0.0835319

>  <i_epik_Tot_Q>
0

>  <i_epik_Tot_abs_Q>
0

>  <s_lp_Force_Field>
OPLS_2005

>  <r_lp_Energy>
54.7295

>  <b_lp_Chiralities_Consistent>
1

>  <s_lp_Variant>
BACE_81.smi:1-1

>  <chiral flag>
1

>  <version>
0

>  <s_i_glide_gridfile>
second_dock_grid_2

>  <i_i_glide_lignum>
34

>  <i_i_glide_rotatable_bonds>
8

>  <r_i_docking_score>
-1.95047

>  <r_i_glide_ligand_efficiency>
-0.0453598

>  <r_i_glide_ligand_efficiency_sa>
-0.158913

>  <r_i_glide_ligand_efficiency_ln>
-0.409659

>  <r_glide_XP_GScore>
-2.03397

>  <r_i_glide_gscore>
-2.03397

>  <r_i_glide_evdw>
-45.5289

>  <r_i_glide_ecoul>
-7.97994

>  <r_i_glide_energy>
-53.5088

>  <r_i_glide_einternal>
6.69124

>  <r_i_glide_emodel>
-75.7498

>  <r_glide_XP_HBond>
-0.574291

>  <i_i_glide_confnum>
1

>  <i_i_glide_posenum>
4

>  <r_i_glide_eff_state_penalty>
0.0835

>  <i_glide_XP_PoseRank>
1

$$$$
