BACE_129.smi:1
 OpenBabel09301813003D
Structure written by MMmdl.
 85 88  0  0  1  0  0  0  0  0999 V2000
   21.5969   39.5297   -6.1272 C   0  0  0  0  0  0  0  0  0  0  0  0
   22.4678   40.1465   -5.1896 O   0  0  0  0  0  0  0  0  0  0  0  0
   21.8236   41.0576   -4.3101 C   0  0  0  0  0  0  0  0  0  0  0  0
   21.6525   42.4437   -4.9062 C   0  0  0  0  0  0  0  0  0  0  0  0
   22.6788   43.3997   -4.7738 C   0  0  0  0  0  0  0  0  0  0  0  0
   22.5142   44.7066   -5.2786 C   0  0  0  0  0  0  0  0  0  0  0  0
   21.2920   45.0505   -5.9044 C   0  0  0  0  0  0  0  0  0  0  0  0
   20.2726   44.0952   -6.0773 C   0  0  0  0  0  0  0  0  0  0  0  0
   20.4600   42.7912   -5.5759 C   0  0  0  0  0  0  0  0  0  0  0  0
   18.9882   44.5038   -6.7323 C   0  0  0  0  0  0  0  0  0  0  0  0
   18.4608   45.5805   -6.4426 O   0  0  0  0  0  0  0  0  0  0  0  0
   18.4968   43.6556   -7.6529 N   0  0  0  0  0  0  0  0  0  0  0  0
   17.3154   43.9172   -8.4877 C   0  0  1  0  0  0  0  0  0  0  0  0
   17.7298   44.3788   -9.9043 C   0  0  0  0  0  0  0  0  0  0  0  0
   18.6270   45.6071   -9.9057 C   0  0  0  0  0  0  0  0  0  0  0  0
   20.0262   45.4688  -10.0203 C   0  0  0  0  0  0  0  0  0  0  0  0
   20.8753   46.5948   -9.9761 C   0  0  0  0  0  0  0  0  0  0  0  0
   20.2966   47.8804   -9.8306 C   0  0  0  0  0  0  0  0  0  0  0  0
   18.9014   48.0241   -9.7222 C   0  0  0  0  0  0  0  0  0  0  0  0
   18.0658   46.8921   -9.7563 C   0  0  0  0  0  0  0  0  0  0  0  0
   22.2304   46.3513  -10.0801 O   0  0  0  0  0  0  0  0  0  0  0  0
   23.1678   47.3995   -9.8414 C   0  0  0  0  0  0  0  0  0  0  0  0
   23.2901   47.7444   -8.3430 C   0  0  0  0  0  0  0  0  0  0  0  0
   23.7334   46.5542   -7.4811 C   0  0  0  0  0  0  0  0  0  0  0  0
   23.6072   46.8348   -5.9698 C   0  0  0  0  0  0  0  0  0  0  0  0
   23.5804   45.6175   -5.1650 N   0  0  0  0  0  0  0  0  0  0  0  0
   16.3112   42.7279   -8.5373 C   0  0  2  0  0  0  0  0  0  0  0  0
   15.0158   43.2802   -8.4407 O   0  0  0  0  0  0  0  0  0  0  0  0
   16.4565   41.6858   -7.4082 C   0  0  0  0  0  0  0  0  0  0  0  0
   15.4001   40.6652   -7.4620 N   0  0  0  0  0  0  0  0  0  0  0  0
   15.8046   39.3169   -7.0483 C   0  0  0  0  0  0  0  0  0  0  0  0
   16.7892   38.7479   -8.0296 C   0  0  0  0  0  0  0  0  0  0  0  0
   18.2070   38.7258   -7.9145 C   0  0  0  0  0  0  0  0  0  0  0  0
   18.6244   38.4151   -9.1740 C   0  0  0  0  0  0  0  0  0  0  0  0
   19.9749   38.4028   -9.8069 C   0  0  0  0  0  0  0  0  0  0  0  0
   20.4718   39.7585  -10.3916 C   0  0  0  0  0  0  0  0  0  0  0  0
   20.2949   39.7869  -11.9247 C   0  0  0  0  0  0  0  0  0  0  0  0
   19.7465   40.9862   -9.8008 C   0  0  0  0  0  0  0  0  0  0  0  0
   21.9697   39.8885  -10.0792 C   0  0  0  0  0  0  0  0  0  0  0  0
   17.5611   38.1648   -9.9768 O   0  0  0  0  0  0  0  0  0  0  0  0
   16.3904   38.3680   -9.2354 N   0  0  0  0  0  0  0  0  0  0  0  0
   16.7843   44.7575   -8.0369 H   0  0  0  0  0  0  0  0  0  0  0  0
   16.3940   42.2093   -9.4932 H   0  0  0  0  0  0  0  0  0  0  0  0
   22.1661   38.8541   -6.7652 H   0  0  0  0  0  0  0  0  0  0  0  0
   21.1119   40.2608   -6.7736 H   0  0  0  0  0  0  0  0  0  0  0  0
   20.8300   38.9485   -5.6157 H   0  0  0  0  0  0  0  0  0  0  0  0
   22.4448   41.1506   -3.4176 H   0  0  0  0  0  0  0  0  0  0  0  0
   20.8627   40.6694   -3.9668 H   0  0  0  0  0  0  0  0  0  0  0  0
   23.6024   43.1267   -4.2801 H   0  0  0  0  0  0  0  0  0  0  0  0
   21.1272   46.0442   -6.2936 H   0  0  0  0  0  0  0  0  0  0  0  0
   19.6717   42.0654   -5.6749 H   0  0  0  0  0  0  0  0  0  0  0  0
   19.0044   42.7986   -7.8216 H   0  0  0  0  0  0  0  0  0  0  0  0
   18.2376   43.5674  -10.4267 H   0  0  0  0  0  0  0  0  0  0  0  0
   16.8386   44.6006  -10.4932 H   0  0  0  0  0  0  0  0  0  0  0  0
   20.4596   44.4851  -10.1186 H   0  0  0  0  0  0  0  0  0  0  0  0
   20.9013   48.7747   -9.8030 H   0  0  0  0  0  0  0  0  0  0  0  0
   18.4717   49.0078   -9.6080 H   0  0  0  0  0  0  0  0  0  0  0  0
   16.9973   47.0121   -9.6649 H   0  0  0  0  0  0  0  0  0  0  0  0
   24.1350   47.0484  -10.1967 H   0  0  0  0  0  0  0  0  0  0  0  0
   22.9379   48.2795  -10.4429 H   0  0  0  0  0  0  0  0  0  0  0  0
   23.9995   48.5607   -8.2084 H   0  0  0  0  0  0  0  0  0  0  0  0
   22.3325   48.1152   -7.9817 H   0  0  0  0  0  0  0  0  0  0  0  0
   23.1278   45.6893   -7.7579 H   0  0  0  0  0  0  0  0  0  0  0  0
   24.7602   46.2738   -7.7201 H   0  0  0  0  0  0  0  0  0  0  0  0
   24.4406   47.4572   -5.6436 H   0  0  0  0  0  0  0  0  0  0  0  0
   22.7149   47.4199   -5.7532 H   0  0  0  0  0  0  0  0  0  0  0  0
   24.4329   45.3167   -4.6981 H   0  0  0  0  0  0  0  0  0  0  0  0
   14.8419   43.3594   -7.5116 H   0  0  0  0  0  0  0  0  0  0  0  0
   17.4366   41.2251   -7.5012 H   0  0  0  0  0  0  0  0  0  0  0  0
   16.4572   42.1753   -6.4399 H   0  0  0  0  0  0  0  0  0  0  0  0
   14.6142   40.9572   -6.8799 H   0  0  0  0  0  0  0  0  0  0  0  0
   16.2174   39.3352   -6.0386 H   0  0  0  0  0  0  0  0  0  0  0  0
   14.9234   38.6740   -7.0040 H   0  0  0  0  0  0  0  0  0  0  0  0
   18.8144   39.0286   -7.0734 H   0  0  0  0  0  0  0  0  0  0  0  0
   20.6677   38.0659   -9.0376 H   0  0  0  0  0  0  0  0  0  0  0  0
   20.0186   37.6274  -10.5684 H   0  0  0  0  0  0  0  0  0  0  0  0
   20.8160   38.9613  -12.4084 H   0  0  0  0  0  0  0  0  0  0  0  0
   20.6937   40.7088  -12.3509 H   0  0  0  0  0  0  0  0  0  0  0  0
   19.2435   39.7309  -12.2037 H   0  0  0  0  0  0  0  0  0  0  0  0
   19.8230   41.0199   -8.7131 H   0  0  0  0  0  0  0  0  0  0  0  0
   18.6870   41.0005  -10.0559 H   0  0  0  0  0  0  0  0  0  0  0  0
   20.1775   41.9128  -10.1826 H   0  0  0  0  0  0  0  0  0  0  0  0
   22.1508   39.9782   -9.0035 H   0  0  0  0  0  0  0  0  0  0  0  0
   22.4263   40.7547  -10.5690 H   0  0  0  0  0  0  0  0  0  0  0  0
   22.4849   38.9928  -10.4189 H   0  0  0  0  0  0  0  0  0  0  0  0
  1  2  1  0  0  0  0
  1 44  1  0  0  0  0
  1 45  1  0  0  0  0
  1 46  1  0  0  0  0
  2  3  1  0  0  0  0
  3  4  1  0  0  0  0
  3 47  1  0  0  0  0
  3 48  1  0  0  0  0
  4  9  1  0  0  0  0
  4  5  2  0  0  0  0
  5  6  1  0  0  0  0
  5 49  1  0  0  0  0
  6 26  1  0  0  0  0
  6  7  2  0  0  0  0
  7  8  1  0  0  0  0
  7 50  1  0  0  0  0
  8  9  2  0  0  0  0
  8 10  1  0  0  0  0
  9 51  1  0  0  0  0
 10 11  2  0  0  0  0
 10 12  1  0  0  0  0
 12 13  1  0  0  0  0
 12 52  1  0  0  0  0
 13 42  1  1  0  0  0
 13 14  1  0  0  0  0
 13 27  1  0  0  0  0
 14 15  1  0  0  0  0
 14 53  1  0  0  0  0
 14 54  1  0  0  0  0
 15 20  1  0  0  0  0
 15 16  2  0  0  0  0
 16 17  1  0  0  0  0
 16 55  1  0  0  0  0
 17 18  2  0  0  0  0
 17 21  1  0  0  0  0
 18 19  1  0  0  0  0
 18 56  1  0  0  0  0
 19 20  2  0  0  0  0
 19 57  1  0  0  0  0
 20 58  1  0  0  0  0
 21 22  1  0  0  0  0
 22 23  1  0  0  0  0
 22 59  1  0  0  0  0
 22 60  1  0  0  0  0
 23 24  1  0  0  0  0
 23 61  1  0  0  0  0
 23 62  1  0  0  0  0
 24 25  1  0  0  0  0
 24 63  1  0  0  0  0
 24 64  1  0  0  0  0
 25 26  1  0  0  0  0
 25 65  1  0  0  0  0
 25 66  1  0  0  0  0
 26 67  1  0  0  0  0
 27 43  1  6  0  0  0
 27 28  1  0  0  0  0
 27 29  1  0  0  0  0
 28 68  1  0  0  0  0
 29 30  1  0  0  0  0
 29 69  1  0  0  0  0
 29 70  1  0  0  0  0
 30 31  1  0  0  0  0
 30 71  1  0  0  0  0
 31 32  1  0  0  0  0
 31 72  1  0  0  0  0
 31 73  1  0  0  0  0
 32 41  2  0  0  0  0
 32 33  1  0  0  0  0
 33 34  2  0  0  0  0
 33 74  1  0  0  0  0
 34 35  1  0  0  0  0
 34 40  1  0  0  0  0
 35 36  1  0  0  0  0
 35 75  1  0  0  0  0
 35 76  1  0  0  0  0
 36 37  1  0  0  0  0
 36 38  1  0  0  0  0
 36 39  1  0  0  0  0
 37 77  1  0  0  0  0
 37 78  1  0  0  0  0
 37 79  1  0  0  0  0
 38 80  1  0  0  0  0
 38 81  1  0  0  0  0
 38 82  1  0  0  0  0
 39 83  1  0  0  0  0
 39 84  1  0  0  0  0
 39 85  1  0  0  0  0
 40 41  1  0  0  0  0
M  END
>  <s_m_source_file>
BACE_129.smi

>  <i_m_source_file_index>
1

>  <i_lp_mmshare_version>
42013

>  <i_f3d_flags>
0

>  <s_epik_input>
W0NIM11DKFtDSDNdKShbQ0gzXSlbQ0gyXWMob24xKVtjSF1jMVtDSDJdW05IXVtDSDJdW0NAQEhdKFtPSF0pW0NAQEhdKFtOSF1DKD1PKWMoW2NIXTIpW2NIXWMoW2NIXWMyMylbQ0gyXU9bQ0gzXSlbQ0gyXWM0W2NIXWMoW2NIXVtjSF1bY0hdNClPW0NIMl1bQ0gyXVtDSDJdW0NIMl1bTkhdMw==

>  <s_epik_cmdline>
J2VwaWtfcHl0aG9uJywgJy1waCcsICc3LjAnLCAnLXRuJywgJzgnLCAnLW1hJywgJzIwMCcsICctaW1hZScsICc8aW5maWxlLm1hZT4nLCAnLW9tYWUnLCAnPG91dGZpbGUubWFlPic=

>  <r_lp_tautomer_probability>
1

>  <r_epik_Ionization_Penalty>
0.2485

>  <r_epik_Ionization_Penalty_Charging>
0.0000

>  <r_epik_Ionization_Penalty_Neutral>
0.2485

>  <r_epik_State_Penalty>
0.2394

>  <r_epik_Charging_Adjusted_Penalty>
0.239404

>  <i_epik_Tot_Q>
0

>  <i_epik_Tot_abs_Q>
0

>  <s_lp_Force_Field>
OPLS_2005

>  <r_lp_Energy>
45.3733

>  <b_lp_Chiralities_Consistent>
1

>  <s_lp_Variant>
BACE_129.smi:1-1

>  <chiral flag>
1

>  <version>
0

>  <s_i_glide_gridfile>
second_dock_grid_2

>  <i_i_glide_lignum>
61

>  <i_i_glide_rotatable_bonds>
10

>  <r_i_docking_score>
-4.05273

>  <r_i_glide_ligand_efficiency>
-0.098847

>  <r_i_glide_ligand_efficiency_sa>
-0.340846

>  <r_i_glide_ligand_efficiency_ln>
-0.859799

>  <r_glide_XP_GScore>
-4.29213

>  <r_i_glide_gscore>
-4.29213

>  <r_i_glide_evdw>
-40.6491

>  <r_i_glide_ecoul>
-10.6538

>  <r_i_glide_energy>
-51.3029

>  <r_i_glide_einternal>
6.70482

>  <r_i_glide_emodel>
-66.8218

>  <r_glide_XP_HBond>
-0.248208

>  <i_i_glide_confnum>
1

>  <i_i_glide_posenum>
34

>  <r_i_glide_eff_state_penalty>
0.2394

>  <i_glide_XP_PoseRank>
1

$$$$
