BACE_110.smi:1
 OpenBabel09301813003D
Structure written by MMmdl.
 82 85  0  0  1  0  0  0  0  0999 V2000
   26.1266   44.6337   -7.7445 C   0  0  0  0  0  0  0  0  0  0  0  0
   24.7054   44.1371   -7.8887 C   0  0  0  0  0  0  0  0  0  0  0  0
   24.2562   43.5769   -9.1011 C   0  0  0  0  0  0  0  0  0  0  0  0
   22.9409   43.0759   -9.1605 C   0  0  0  0  0  0  0  0  0  0  0  0
   22.1165   43.2101   -8.0238 C   0  0  0  0  0  0  0  0  0  0  0  0
   22.6555   43.7820   -6.8593 C   0  0  0  0  0  0  0  0  0  0  0  0
   23.9290   44.2354   -6.7873 N   0  0  0  0  0  0  0  0  0  0  0  0
   21.8508   43.8734   -5.7446 O   0  0  0  0  0  0  0  0  0  0  0  0
   22.4640   43.8714   -4.4572 C   0  0  0  0  0  0  0  0  0  0  0  0
   22.9416   42.4618   -4.0893 C   0  0  0  0  0  0  0  0  0  0  0  0
   21.7621   41.4920   -3.9051 C   0  0  0  0  0  0  0  0  0  0  0  0
   22.1571   40.0220   -4.0955 C   0  0  0  0  0  0  0  0  0  0  0  0
   22.4600   39.7511   -5.4607 O   0  0  0  0  0  0  0  0  0  0  0  0
   21.4455   39.5103   -6.3622 C   0  0  0  0  0  0  0  0  0  0  0  0
   21.8319   39.2393   -7.6901 C   0  0  0  0  0  0  0  0  0  0  0  0
   20.8699   38.9870   -8.6913 C   0  0  0  0  0  0  0  0  0  0  0  0
   21.2978   38.8120  -10.1429 C   0  0  0  0  0  0  0  0  0  0  0  0
   21.4172   40.1266  -10.9575 C   0  0  2  0  0  0  0  0  0  0  0  0
   21.8601   41.1916  -10.0665 N   0  0  0  0  0  0  0  0  0  0  0  0
   22.4439   42.3540  -10.3725 C   0  0  0  0  0  0  0  0  0  0  0  0
   22.6096   42.7752  -11.5159 O   0  0  0  0  0  0  0  0  0  0  0  0
   20.0975   40.4768  -11.6969 C   0  0  2  0  0  0  0  0  0  0  0  0
   20.4582   41.2197  -12.8403 O   0  0  0  0  0  0  0  0  0  0  0  0
   19.0792   41.2880  -10.8690 C   0  0  0  0  0  0  0  0  0  0  0  0
   17.6943   40.9130  -11.1803 N   0  0  0  0  0  0  0  0  0  0  0  0
   16.6545   41.6656  -10.4638 C   0  0  0  0  0  0  0  0  0  0  0  0
   15.2946   41.0896  -10.9097 C   0  0  0  0  0  0  0  0  0  0  0  0
   16.7544   41.3615   -8.9475 C   0  0  0  0  0  0  0  0  0  0  0  0
   16.6872   43.1612  -10.7329 C   0  0  0  0  0  0  0  0  0  0  0  0
   17.0392   44.1715   -9.7748 C   0  0  0  0  0  0  0  0  0  0  0  0
   17.1833   45.4114  -10.3359 C   0  0  0  0  0  0  0  0  0  0  0  0
   16.8090   45.2556  -12.0238 S   0  0  0  0  0  0  0  0  0  0  0  0
   16.5185   43.6033  -11.9678 N   0  0  0  0  0  0  0  0  0  0  0  0
   17.6440   46.7030   -9.7082 C   0  0  0  0  0  0  0  0  0  0  0  0
   16.6514   47.8377  -10.0173 C   0  0  0  0  0  0  0  0  0  0  0  0
   19.0333   47.0825  -10.2550 C   0  0  0  0  0  0  0  0  0  0  0  0
   17.7497   46.5747   -8.1729 C   0  0  0  0  0  0  0  0  0  0  0  0
   19.5044   38.9360   -8.3455 C   0  0  0  0  0  0  0  0  0  0  0  0
   19.1053   39.2071   -7.0242 C   0  0  0  0  0  0  0  0  0  0  0  0
   20.0661   39.5180   -6.0440 C   0  0  0  0  0  0  0  0  0  0  0  0
   22.1847   39.9535  -11.7132 H   0  0  0  0  0  0  0  0  0  0  0  0
   19.6331   39.5589  -12.0591 H   0  0  0  0  0  0  0  0  0  0  0  0
   26.5715   44.8420   -8.7184 H   0  0  0  0  0  0  0  0  0  0  0  0
   26.7351   43.8799   -7.2415 H   0  0  0  0  0  0  0  0  0  0  0  0
   26.1550   45.5512   -7.1556 H   0  0  0  0  0  0  0  0  0  0  0  0
   24.9187   43.4885   -9.9511 H   0  0  0  0  0  0  0  0  0  0  0  0
   21.0978   42.8511   -8.0193 H   0  0  0  0  0  0  0  0  0  0  0  0
   23.2611   44.6115   -4.3741 H   0  0  0  0  0  0  0  0  0  0  0  0
   21.7014   44.1500   -3.7376 H   0  0  0  0  0  0  0  0  0  0  0  0
   23.6311   42.1018   -4.8495 H   0  0  0  0  0  0  0  0  0  0  0  0
   23.5168   42.5056   -3.1663 H   0  0  0  0  0  0  0  0  0  0  0  0
   21.3447   41.6299   -2.9074 H   0  0  0  0  0  0  0  0  0  0  0  0
   20.9594   41.7384   -4.5998 H   0  0  0  0  0  0  0  0  0  0  0  0
   23.0467   39.8031   -3.5056 H   0  0  0  0  0  0  0  0  0  0  0  0
   21.3876   39.3572   -3.7140 H   0  0  0  0  0  0  0  0  0  0  0  0
   22.8827   39.2554   -7.9465 H   0  0  0  0  0  0  0  0  0  0  0  0
   22.2653   38.3029  -10.1416 H   0  0  0  0  0  0  0  0  0  0  0  0
   20.5953   38.1475  -10.6340 H   0  0  0  0  0  0  0  0  0  0  0  0
   21.7968   40.9771   -9.0802 H   0  0  0  0  0  0  0  0  0  0  0  0
   21.1026   41.8625  -12.5660 H   0  0  0  0  0  0  0  0  0  0  0  0
   19.2663   41.1100   -9.8134 H   0  0  0  0  0  0  0  0  0  0  0  0
   19.2384   42.3562  -11.0218 H   0  0  0  0  0  0  0  0  0  0  0  0
   17.5562   39.9148  -11.0618 H   0  0  0  0  0  0  0  0  0  0  0  0
   14.4637   41.6150  -10.4362 H   0  0  0  0  0  0  0  0  0  0  0  0
   15.2008   40.0328  -10.6521 H   0  0  0  0  0  0  0  0  0  0  0  0
   15.1617   41.1608  -11.9870 H   0  0  0  0  0  0  0  0  0  0  0  0
   15.9271   41.8129   -8.3971 H   0  0  0  0  0  0  0  0  0  0  0  0
   17.6739   41.7301   -8.4926 H   0  0  0  0  0  0  0  0  0  0  0  0
   16.7112   40.2895   -8.7524 H   0  0  0  0  0  0  0  0  0  0  0  0
   17.2310   43.9472   -8.7372 H   0  0  0  0  0  0  0  0  0  0  0  0
   16.9580   48.7743   -9.5508 H   0  0  0  0  0  0  0  0  0  0  0  0
   15.6601   47.5895   -9.6439 H   0  0  0  0  0  0  0  0  0  0  0  0
   16.5659   48.0222  -11.0884 H   0  0  0  0  0  0  0  0  0  0  0  0
   19.0129   47.2292  -11.3353 H   0  0  0  0  0  0  0  0  0  0  0  0
   19.7666   46.3016  -10.0463 H   0  0  0  0  0  0  0  0  0  0  0  0
   19.4013   48.0067   -9.8079 H   0  0  0  0  0  0  0  0  0  0  0  0
   18.0682   47.5125   -7.7143 H   0  0  0  0  0  0  0  0  0  0  0  0
   18.4774   45.8142   -7.8838 H   0  0  0  0  0  0  0  0  0  0  0  0
   16.7929   46.2995   -7.7268 H   0  0  0  0  0  0  0  0  0  0  0  0
   18.7567   38.7227   -9.0950 H   0  0  0  0  0  0  0  0  0  0  0  0
   18.0569   39.1948   -6.7624 H   0  0  0  0  0  0  0  0  0  0  0  0
   19.7099   39.7501   -5.0523 H   0  0  0  0  0  0  0  0  0  0  0  0
  1  2  1  0  0  0  0
  1 43  1  0  0  0  0
  1 44  1  0  0  0  0
  1 45  1  0  0  0  0
  2  7  1  0  0  0  0
  2  3  2  0  0  0  0
  3  4  1  0  0  0  0
  3 46  1  0  0  0  0
  4 20  1  0  0  0  0
  4  5  2  0  0  0  0
  5  6  1  0  0  0  0
  5 47  1  0  0  0  0
  6  7  2  0  0  0  0
  6  8  1  0  0  0  0
  8  9  1  0  0  0  0
  9 10  1  0  0  0  0
  9 48  1  0  0  0  0
  9 49  1  0  0  0  0
 10 11  1  0  0  0  0
 10 50  1  0  0  0  0
 10 51  1  0  0  0  0
 11 12  1  0  0  0  0
 11 52  1  0  0  0  0
 11 53  1  0  0  0  0
 12 13  1  0  0  0  0
 12 54  1  0  0  0  0
 12 55  1  0  0  0  0
 13 14  1  0  0  0  0
 14 40  1  0  0  0  0
 14 15  2  0  0  0  0
 15 16  1  0  0  0  0
 15 56  1  0  0  0  0
 16 17  1  0  0  0  0
 16 38  2  0  0  0  0
 17 18  1  0  0  0  0
 17 57  1  0  0  0  0
 17 58  1  0  0  0  0
 18 41  1  6  0  0  0
 18 19  1  0  0  0  0
 18 22  1  0  0  0  0
 19 20  1  0  0  0  0
 19 59  1  0  0  0  0
 20 21  2  0  0  0  0
 22 42  1  6  0  0  0
 22 23  1  0  0  0  0
 22 24  1  0  0  0  0
 23 60  1  0  0  0  0
 24 25  1  0  0  0  0
 24 61  1  0  0  0  0
 24 62  1  0  0  0  0
 25 26  1  0  0  0  0
 25 63  1  0  0  0  0
 26 27  1  0  0  0  0
 26 28  1  0  0  0  0
 26 29  1  0  0  0  0
 27 64  1  0  0  0  0
 27 65  1  0  0  0  0
 27 66  1  0  0  0  0
 28 67  1  0  0  0  0
 28 68  1  0  0  0  0
 28 69  1  0  0  0  0
 29 33  2  0  0  0  0
 29 30  1  0  0  0  0
 30 31  2  0  0  0  0
 30 70  1  0  0  0  0
 31 32  1  0  0  0  0
 31 34  1  0  0  0  0
 32 33  1  0  0  0  0
 34 35  1  0  0  0  0
 34 36  1  0  0  0  0
 34 37  1  0  0  0  0
 35 71  1  0  0  0  0
 35 72  1  0  0  0  0
 35 73  1  0  0  0  0
 36 74  1  0  0  0  0
 36 75  1  0  0  0  0
 36 76  1  0  0  0  0
 37 77  1  0  0  0  0
 37 78  1  0  0  0  0
 37 79  1  0  0  0  0
 38 39  1  0  0  0  0
 38 80  1  0  0  0  0
 39 40  2  0  0  0  0
 39 81  1  0  0  0  0
 40 82  1  0  0  0  0
M  END
>  <s_m_source_file>
BACE_110.smi

>  <i_m_source_file_index>
1

>  <i_lp_mmshare_version>
42013

>  <i_f3d_flags>
0

>  <s_epik_input>
YzEyW2NIXWMoW0NIM10pbmMoW2NIXTEpT1tDSDJdW0NIMl1bQ0gyXVtDSDJdT2MzW2NIXWMoW2NIXVtjSF1bY0hdMylbQ0gyXVtDQEhdKFtOSF1DMj1PKVtDQEhdKFtPSF0pW0NIMl1bTkhdQyhbQ0gzXSkoW0NIM10pYzRbY0hdYyhzbjQpQyhbQ0gzXSkoW0NIM10pW0NIM10=

>  <s_epik_cmdline>
J2VwaWtfcHl0aG9uJywgJy1waCcsICc3LjAnLCAnLXRuJywgJzgnLCAnLW1hJywgJzIwMCcsICctaW1hZScsICc8aW5maWxlLm1hZT4nLCAnLW9tYWUnLCAnPG91dGZpbGUubWFlPic=

>  <r_lp_tautomer_probability>
1

>  <r_epik_Ionization_Penalty>
2.2656

>  <r_epik_Ionization_Penalty_Charging>
0.0000

>  <r_epik_Ionization_Penalty_Neutral>
2.2656

>  <r_epik_State_Penalty>
2.4137

>  <r_epik_Charging_Adjusted_Penalty>
2.41373

>  <i_epik_Tot_Q>
0

>  <i_epik_Tot_abs_Q>
0

>  <s_lp_Force_Field>
OPLS_2005

>  <r_lp_Energy>
31.3902

>  <b_lp_Chiralities_Consistent>
1

>  <s_lp_Variant>
BACE_110.smi:1-2

>  <chiral flag>
1

>  <version>
0

>  <s_i_glide_gridfile>
second_dock_grid_2

>  <i_i_glide_lignum>
49

>  <i_i_glide_rotatable_bonds>
7

>  <r_i_docking_score>
-2.72837

>  <r_i_glide_ligand_efficiency>
-0.0682093

>  <r_i_glide_ligand_efficiency_sa>
-0.233273

>  <r_i_glide_ligand_efficiency_ln>
-0.581882

>  <r_glide_XP_GScore>
-5.14207

>  <r_i_glide_gscore>
-5.14207

>  <r_i_glide_evdw>
-40.6502

>  <r_i_glide_ecoul>
-8.55719

>  <r_i_glide_energy>
-49.2074

>  <r_i_glide_einternal>
8.71984

>  <r_i_glide_emodel>
-59.3369

>  <r_glide_XP_HBond>
-1.18

>  <i_i_glide_confnum>
1

>  <i_i_glide_posenum>
1

>  <r_i_glide_eff_state_penalty>
2.4137

>  <i_glide_XP_PoseRank>
1

$$$$
