BACE_102.smi:1
 OpenBabel09301813003D
Structure written by MMmdl.
 84 88  0  0  1  0  0  0  0  0999 V2000
   18.3749   47.4630  -13.7444 C   0  0  0  0  0  0  0  0  0  0  0  0
   17.8314   47.5732  -12.3382 C   0  0  0  0  0  0  0  0  0  0  0  0
   17.3637   46.4382  -11.6373 C   0  0  0  0  0  0  0  0  0  0  0  0
   16.8779   46.6213  -10.3221 C   0  0  0  0  0  0  0  0  0  0  0  0
   16.8599   47.9299   -9.8013 C   0  0  0  0  0  0  0  0  0  0  0  0
   17.3814   48.9908  -10.5664 C   0  0  0  0  0  0  0  0  0  0  0  0
   17.4908   50.2961  -10.0766 N   0  0  0  0  0  0  0  0  0  0  0  0
   17.4167   50.5523   -8.6453 C   0  0  0  0  0  0  0  0  0  0  0  0
   18.4816   49.8391   -7.8325 C   0  0  0  0  0  0  0  0  0  0  0  0
   18.2028   48.9793   -6.8388 C   0  0  0  0  0  0  0  0  0  0  0  0
   19.2361   48.3163   -5.9526 C   0  0  0  0  0  0  0  0  0  0  0  0
   20.2759   47.6946   -6.6953 O   0  0  0  0  0  0  0  0  0  0  0  0
   20.1469   46.3594   -7.0168 C   0  0  0  0  0  0  0  0  0  0  0  0
   18.9084   45.6699   -7.0668 C   0  0  0  0  0  0  0  0  0  0  0  0
   18.8669   44.2912   -7.3671 C   0  0  0  0  0  0  0  0  0  0  0  0
   17.5508   43.5295   -7.3646 C   0  0  0  0  0  0  0  0  0  0  0  0
   16.9672   43.1495   -8.7517 C   0  0  2  0  0  0  0  0  0  0  0  0
   16.9579   44.2892   -9.6832 N   0  0  0  0  0  0  0  0  0  0  0  0
   16.4004   45.4918   -9.4534 C   0  0  0  0  0  0  0  0  0  0  0  0
   15.6528   45.7257   -8.5024 O   0  0  0  0  0  0  0  0  0  0  0  0
   15.6512   42.2846   -8.7464 C   0  0  2  0  0  0  0  0  0  0  0  0
   14.4670   43.0619   -8.8058 O   0  0  0  0  0  0  0  0  0  0  0  0
   15.5160   41.2912   -7.5489 C   0  0  0  0  0  0  0  0  0  0  0  0
   14.8692   39.9965   -7.8719 N   0  3  0  0  0  0  0  0  0  0  0  0
   15.5791   39.1683   -8.8831 C   0  0  0  0  0  0  0  0  0  0  0  0
   14.8017   37.9400   -9.2824 C   0  0  0  0  0  0  0  0  0  0  0  0
   14.8596   39.1281  -10.2113 C   0  0  0  0  0  0  0  0  0  0  0  0
   17.0867   39.1655   -8.8004 C   0  0  0  0  0  0  0  0  0  0  0  0
   17.8584   39.7618   -9.8217 C   0  0  0  0  0  0  0  0  0  0  0  0
   19.2741   39.8015   -9.7659 C   0  0  0  0  0  0  0  0  0  0  0  0
   19.9083   39.2175   -8.6439 C   0  0  0  0  0  0  0  0  0  0  0  0
   19.1517   38.6207   -7.6171 C   0  0  0  0  0  0  0  0  0  0  0  0
   17.7474   38.5944   -7.6949 C   0  0  0  0  0  0  0  0  0  0  0  0
   20.1244   40.4294  -10.8928 C   0  0  0  0  0  0  0  0  0  0  0  0
   19.2613   41.0517  -12.0088 C   0  0  0  0  0  0  0  0  0  0  0  0
   21.0261   41.5494  -10.3441 C   0  0  0  0  0  0  0  0  0  0  0  0
   21.0139   39.3498  -11.5326 C   0  0  0  0  0  0  0  0  0  0  0  0
   20.0664   43.5934   -7.6008 C   0  0  0  0  0  0  0  0  0  0  0  0
   21.2955   44.2752   -7.5896 C   0  0  0  0  0  0  0  0  0  0  0  0
   21.3334   45.6524   -7.3044 C   0  0  0  0  0  0  0  0  0  0  0  0
   22.5257   46.2951   -7.2819 F   0  0  0  0  0  0  0  0  0  0  0  0
   17.8463   48.8162  -11.8142 N   0  0  0  0  0  0  0  0  0  0  0  0
   17.7261   42.4903   -9.1746 H   0  0  0  0  0  0  0  0  0  0  0  0
   15.6613   41.7317   -9.6839 H   0  0  0  0  0  0  0  0  0  0  0  0
   18.5614   48.4468  -14.1754 H   0  0  0  0  0  0  0  0  0  0  0  0
   17.6660   46.9523  -14.3893 H   0  0  0  0  0  0  0  0  0  0  0  0
   19.3168   46.9195  -13.7438 H   0  0  0  0  0  0  0  0  0  0  0  0
   17.3891   45.4630  -12.1004 H   0  0  0  0  0  0  0  0  0  0  0  0
   16.4756   48.0970   -8.8092 H   0  0  0  0  0  0  0  0  0  0  0  0
   18.0318   50.9308  -10.6460 H   0  0  0  0  0  0  0  0  0  0  0  0
   16.4247   50.2917   -8.2752 H   0  0  0  0  0  0  0  0  0  0  0  0
   17.5318   51.6261   -8.4930 H   0  0  0  0  0  0  0  0  0  0  0  0
   19.5107   50.0663   -8.0704 H   0  0  0  0  0  0  0  0  0  0  0  0
   17.1732   48.7681   -6.5914 H   0  0  0  0  0  0  0  0  0  0  0  0
   19.6859   49.0871   -5.3275 H   0  0  0  0  0  0  0  0  0  0  0  0
   18.7556   47.6250   -5.2592 H   0  0  0  0  0  0  0  0  0  0  0  0
   17.9795   46.1847   -6.8744 H   0  0  0  0  0  0  0  0  0  0  0  0
   16.8292   44.0852   -6.7762 H   0  0  0  0  0  0  0  0  0  0  0  0
   17.7739   42.6135   -6.8339 H   0  0  0  0  0  0  0  0  0  0  0  0
   17.5882   44.2294  -10.4684 H   0  0  0  0  0  0  0  0  0  0  0  0
   13.7162   42.4905   -8.8889 H   0  0  0  0  0  0  0  0  0  0  0  0
   14.9478   41.7497   -6.7438 H   0  0  0  0  0  0  0  0  0  0  0  0
   16.4780   41.0382   -7.1147 H   0  0  0  0  0  0  0  0  0  0  0  0
   13.9070   40.1499   -8.1518 H   0  0  0  0  0  0  0  0  0  0  0  0
   15.3651   37.0564   -9.5752 H   0  0  0  0  0  0  0  0  0  0  0  0
   13.8272   37.7508   -8.8363 H   0  0  0  0  0  0  0  0  0  0  0  0
   13.9460   39.7092  -10.3240 H   0  0  0  0  0  0  0  0  0  0  0  0
   15.4272   38.9748  -11.1245 H   0  0  0  0  0  0  0  0  0  0  0  0
   17.3308   40.1936  -10.6552 H   0  0  0  0  0  0  0  0  0  0  0  0
   20.9857   39.2165   -8.5648 H   0  0  0  0  0  0  0  0  0  0  0  0
   19.6498   38.1816   -6.7645 H   0  0  0  0  0  0  0  0  0  0  0  0
   17.1761   38.1485   -6.8946 H   0  0  0  0  0  0  0  0  0  0  0  0
   18.6009   40.3035  -12.4402 H   0  0  0  0  0  0  0  0  0  0  0  0
   19.8787   41.4457  -12.8168 H   0  0  0  0  0  0  0  0  0  0  0  0
   18.6456   41.8725  -11.6376 H   0  0  0  0  0  0  0  0  0  0  0  0
   21.6640   41.2131   -9.5269 H   0  0  0  0  0  0  0  0  0  0  0  0
   20.4295   42.3835   -9.9842 H   0  0  0  0  0  0  0  0  0  0  0  0
   21.6847   41.9414  -11.1204 H   0  0  0  0  0  0  0  0  0  0  0  0
   21.6966   38.9020  -10.8112 H   0  0  0  0  0  0  0  0  0  0  0  0
   21.6281   39.7565  -12.3378 H   0  0  0  0  0  0  0  0  0  0  0  0
   20.4070   38.5500  -11.9540 H   0  0  0  0  0  0  0  0  0  0  0  0
   20.0442   42.5293   -7.7814 H   0  0  0  0  0  0  0  0  0  0  0  0
   22.2130   43.7381   -7.7835 H   0  0  0  0  0  0  0  0  0  0  0  0
   14.8488   39.4659   -7.0093 H   0  0  0  0  0  0  0  0  0  0  0  0
  1  2  1  0  0  0  0
  1 45  1  0  0  0  0
  1 46  1  0  0  0  0
  1 47  1  0  0  0  0
  2 42  1  0  0  0  0
  2  3  2  0  0  0  0
  3  4  1  0  0  0  0
  3 48  1  0  0  0  0
  4 19  1  0  0  0  0
  4  5  2  0  0  0  0
  5  6  1  0  0  0  0
  5 49  1  0  0  0  0
  6  7  1  0  0  0  0
  6 42  2  0  0  0  0
  7  8  1  0  0  0  0
  7 50  1  0  0  0  0
  8  9  1  0  0  0  0
  8 51  1  0  0  0  0
  8 52  1  0  0  0  0
  9 10  2  0  0  0  0
  9 53  1  0  0  0  0
 10 11  1  0  0  0  0
 10 54  1  0  0  0  0
 11 12  1  0  0  0  0
 11 55  1  0  0  0  0
 11 56  1  0  0  0  0
 12 13  1  0  0  0  0
 13 40  1  0  0  0  0
 13 14  2  0  0  0  0
 14 15  1  0  0  0  0
 14 57  1  0  0  0  0
 15 16  1  0  0  0  0
 15 38  2  0  0  0  0
 16 17  1  0  0  0  0
 16 58  1  0  0  0  0
 16 59  1  0  0  0  0
 17 43  1  6  0  0  0
 17 18  1  0  0  0  0
 17 21  1  0  0  0  0
 18 19  1  0  0  0  0
 18 60  1  0  0  0  0
 19 20  2  0  0  0  0
 21 44  1  6  0  0  0
 21 22  1  0  0  0  0
 21 23  1  0  0  0  0
 22 61  1  0  0  0  0
 23 24  1  0  0  0  0
 23 62  1  0  0  0  0
 23 63  1  0  0  0  0
 24 25  1  0  0  0  0
 24 64  1  0  0  0  0
 24 84  1  0  0  0  0
 25 27  1  0  0  0  0
 25 26  1  0  0  0  0
 25 28  1  0  0  0  0
 26 27  1  0  0  0  0
 26 65  1  0  0  0  0
 26 66  1  0  0  0  0
 27 67  1  0  0  0  0
 27 68  1  0  0  0  0
 28 33  1  0  0  0  0
 28 29  2  0  0  0  0
 29 30  1  0  0  0  0
 29 69  1  0  0  0  0
 30 31  2  0  0  0  0
 30 34  1  0  0  0  0
 31 32  1  0  0  0  0
 31 70  1  0  0  0  0
 32 33  2  0  0  0  0
 32 71  1  0  0  0  0
 33 72  1  0  0  0  0
 34 35  1  0  0  0  0
 34 36  1  0  0  0  0
 34 37  1  0  0  0  0
 35 73  1  0  0  0  0
 35 74  1  0  0  0  0
 35 75  1  0  0  0  0
 36 76  1  0  0  0  0
 36 77  1  0  0  0  0
 36 78  1  0  0  0  0
 37 79  1  0  0  0  0
 37 80  1  0  0  0  0
 37 81  1  0  0  0  0
 38 39  1  0  0  0  0
 38 82  1  0  0  0  0
 39 40  2  0  0  0  0
 39 83  1  0  0  0  0
 40 41  1  0  0  0  0
M  CHG  1  24   1
M  END
>  <s_m_source_file>
BACE_102.smi

>  <i_m_source_file_index>
1

>  <i_lp_mmshare_version>
42013

>  <i_f3d_flags>
0

>  <s_epik_input>
YzEyW2NIXWMoW0NIM10pbmMoW2NIXTEpW05IXVtDSDJdL1tDSF09W0NIXS9bQ0gyXU9jM1tjSF1jKFtjSF1bY0hdYzNGKVtDSDJdW0NASF0oW05IXUMyPU8pW0NASF0oW09IXSlbQ0gyXVtOSF1DNChbQ0gyXVtDSDJdNCljNVtjSF1jKEMoW0NIM10pKFtDSDNdKVtDSDNdKVtjSF1bY0hdW2NIXTU=

>  <s_epik_cmdline>
J2VwaWtfcHl0aG9uJywgJy1waCcsICc3LjAnLCAnLXRuJywgJzgnLCAnLW1hJywgJzIwMCcsICctaW1hZScsICc8aW5maWxlLm1hZT4nLCAnLW9tYWUnLCAnPG91dGZpbGUubWFlPic=

>  <r_lp_tautomer_probability>
1

>  <r_epik_Ionization_Penalty>
0.5324

>  <r_epik_Ionization_Penalty_Charging>
0.5273

>  <r_epik_Ionization_Penalty_Neutral>
0.0051

>  <r_epik_State_Penalty>
0.5141

>  <r_epik_Charging_Adjusted_Penalty>
1.04141

>  <i_epik_Tot_Q>
1

>  <i_epik_Tot_abs_Q>
1

>  <s_lp_Force_Field>
OPLS_2005

>  <r_lp_Energy>
34.8963

>  <b_lp_Chiralities_Consistent>
1

>  <s_lp_Variant>
BACE_102.smi:1-2

>  <chiral flag>
1

>  <version>
0

>  <s_i_glide_gridfile>
second_dock_grid_2

>  <i_i_glide_lignum>
43

>  <i_i_glide_rotatable_bonds>
7

>  <r_i_docking_score>
-3.12012

>  <r_i_glide_ligand_efficiency>
-0.0742886

>  <r_i_glide_ligand_efficiency_sa>
-0.258229

>  <r_i_glide_ligand_efficiency_ln>
-0.658577

>  <r_glide_XP_GScore>
-3.63422

>  <r_i_glide_gscore>
-3.63422

>  <r_i_glide_evdw>
-41.4484

>  <r_i_glide_ecoul>
-10.3965

>  <r_i_glide_energy>
-51.8449

>  <r_i_glide_einternal>
4.57142

>  <r_i_glide_emodel>
-71.6376

>  <r_glide_XP_HBond>
-0.929448

>  <i_i_glide_confnum>
1

>  <i_i_glide_posenum>
5

>  <r_i_glide_eff_state_penalty>
0.5141

>  <i_glide_XP_PoseRank>
1

$$$$
