BACE_78.smi:1
 OpenBabel09301813003D
Structure written by MMmdl.
 84 86  0  0  1  0  0  0  0  0999 V2000
   17.1935   36.1305   -9.1770 C   0  0  0  0  0  0  0  0  0  0  0  0
   17.5957   37.6030   -8.9761 C   0  0  2  0  0  0  0  0  0  0  0  0
   16.3002   38.4019   -8.7127 C   0  0  0  0  0  0  0  0  0  0  0  0
   16.4827   39.8992   -8.4615 C   0  0  0  0  0  0  0  0  0  0  0  0
   15.1768   40.5708   -8.0207 C   0  0  0  0  0  0  0  0  0  0  0  0
   15.3447   42.0561   -7.6680 C   0  0  0  0  0  0  0  0  0  0  0  0
   15.8166   42.9735   -8.8070 C   0  0  0  0  0  0  0  0  0  0  0  0
   14.7900   43.1336   -9.9417 C   0  0  0  0  0  0  0  0  0  0  0  0
   15.2519   44.0649  -11.0766 C   0  0  0  0  0  0  0  0  0  0  0  0
   16.1108   43.3791  -11.9841 O   0  0  0  0  0  0  0  0  0  0  0  0
   17.4404   43.2472  -11.6650 C   0  0  0  0  0  0  0  0  0  0  0  0
   18.0595   42.0225  -11.9879 C   0  0  0  0  0  0  0  0  0  0  0  0
   19.4334   41.8284  -11.7505 C   0  0  0  0  0  0  0  0  0  0  0  0
   20.1976   42.8632  -11.1722 C   0  0  0  0  0  0  0  0  0  0  0  0
   19.5825   44.0793  -10.8240 C   0  0  0  0  0  0  0  0  0  0  0  0
   18.2104   44.2769  -11.0767 C   0  0  0  0  0  0  0  0  0  0  0  0
   20.0904   40.5606  -12.1944 C   0  0  0  0  0  0  0  0  0  0  0  0
   20.7330   40.5504  -13.2400 O   0  0  0  0  0  0  0  0  0  0  0  0
   19.9457   39.4505  -11.4558 N   0  0  0  0  0  0  0  0  0  0  0  0
   19.4140   39.2734  -10.0999 C   0  0  1  0  0  0  0  0  0  0  0  0
   18.4114   38.0902  -10.2040 C   0  0  0  0  0  0  0  0  0  0  0  0
   20.6164   39.0854   -9.1268 C   0  0  2  0  0  0  0  0  0  0  0  0
   20.1624   39.0670   -7.7875 O   0  0  0  0  0  0  0  0  0  0  0  0
   21.6003   40.2715   -9.2198 C   0  0  0  0  0  0  0  0  0  0  0  0
   22.8120   40.1041   -8.4268 N   0  0  0  0  0  0  0  0  0  0  0  0
   23.6160   41.3245   -8.4085 C   0  0  0  0  0  0  0  0  0  0  0  0
   23.0555   42.4444   -7.5375 C   0  0  0  0  0  0  0  0  0  0  0  0
   22.0679   42.2206   -6.5542 C   0  0  0  0  0  0  0  0  0  0  0  0
   21.6213   43.2979   -5.7647 C   0  0  0  0  0  0  0  0  0  0  0  0
   20.5762   43.0890   -4.6766 C   0  0  0  0  0  0  0  0  0  0  0  0
   21.1005   42.3954   -3.3860 C   0  0  0  0  0  0  0  0  0  0  0  0
   20.1316   42.6829   -2.2217 C   0  0  0  0  0  0  0  0  0  0  0  0
   22.4996   42.9251   -3.0072 C   0  0  0  0  0  0  0  0  0  0  0  0
   21.1628   40.8686   -3.5783 C   0  0  0  0  0  0  0  0  0  0  0  0
   22.1790   44.5700   -6.0040 C   0  0  0  0  0  0  0  0  0  0  0  0
   23.1176   44.8046   -6.9483 N   0  0  0  0  0  0  0  0  0  0  0  0
   23.5445   43.7580   -7.6876 C   0  0  0  0  0  0  0  0  0  0  0  0
   18.2081   37.6279   -8.0752 H   0  0  0  0  0  0  0  0  0  0  0  0
   18.8878   40.1751   -9.8016 H   0  0  0  0  0  0  0  0  0  0  0  0
   21.1289   38.1459   -9.3424 H   0  0  0  0  0  0  0  0  0  0  0  0
   16.5341   36.0233  -10.0399 H   0  0  0  0  0  0  0  0  0  0  0  0
   16.6643   35.7480   -8.3068 H   0  0  0  0  0  0  0  0  0  0  0  0
   18.0594   35.4928   -9.3356 H   0  0  0  0  0  0  0  0  0  0  0  0
   15.6065   38.2657   -9.5446 H   0  0  0  0  0  0  0  0  0  0  0  0
   15.8050   37.9678   -7.8413 H   0  0  0  0  0  0  0  0  0  0  0  0
   17.2531   40.0592   -7.7054 H   0  0  0  0  0  0  0  0  0  0  0  0
   16.8126   40.3730   -9.3827 H   0  0  0  0  0  0  0  0  0  0  0  0
   14.4131   40.4448   -8.7906 H   0  0  0  0  0  0  0  0  0  0  0  0
   14.7921   40.0567   -7.1365 H   0  0  0  0  0  0  0  0  0  0  0  0
   14.3921   42.4173   -7.2851 H   0  0  0  0  0  0  0  0  0  0  0  0
   16.0604   42.1396   -6.8527 H   0  0  0  0  0  0  0  0  0  0  0  0
   16.0278   43.9560   -8.3855 H   0  0  0  0  0  0  0  0  0  0  0  0
   16.7694   42.6095   -9.1867 H   0  0  0  0  0  0  0  0  0  0  0  0
   14.5268   42.1623  -10.3605 H   0  0  0  0  0  0  0  0  0  0  0  0
   13.8717   43.5355   -9.5139 H   0  0  0  0  0  0  0  0  0  0  0  0
   14.3759   44.3583  -11.6569 H   0  0  0  0  0  0  0  0  0  0  0  0
   15.6637   44.9973  -10.6919 H   0  0  0  0  0  0  0  0  0  0  0  0
   17.4776   41.2343  -12.4397 H   0  0  0  0  0  0  0  0  0  0  0  0
   21.2574   42.7310  -11.0032 H   0  0  0  0  0  0  0  0  0  0  0  0
   20.1703   44.8719  -10.3848 H   0  0  0  0  0  0  0  0  0  0  0  0
   17.7764   45.2335  -10.8293 H   0  0  0  0  0  0  0  0  0  0  0  0
   20.3587   38.6231  -11.8599 H   0  0  0  0  0  0  0  0  0  0  0  0
   18.9635   37.2396  -10.6052 H   0  0  0  0  0  0  0  0  0  0  0  0
   17.6783   38.3541  -10.9651 H   0  0  0  0  0  0  0  0  0  0  0  0
   19.8386   39.9250   -7.5569 H   0  0  0  0  0  0  0  0  0  0  0  0
   21.9236   40.4189  -10.2486 H   0  0  0  0  0  0  0  0  0  0  0  0
   21.0770   41.1856   -8.9364 H   0  0  0  0  0  0  0  0  0  0  0  0
   23.3653   39.3347   -8.7972 H   0  0  0  0  0  0  0  0  0  0  0  0
   24.6037   41.0879   -8.0400 H   0  0  0  0  0  0  0  0  0  0  0  0
   23.7632   41.6950   -9.4241 H   0  0  0  0  0  0  0  0  0  0  0  0
   21.6555   41.2339   -6.4007 H   0  0  0  0  0  0  0  0  0  0  0  0
   20.1848   44.0715   -4.4170 H   0  0  0  0  0  0  0  0  0  0  0  0
   19.7268   42.5496   -5.0982 H   0  0  0  0  0  0  0  0  0  0  0  0
   20.4521   42.1922   -1.3024 H   0  0  0  0  0  0  0  0  0  0  0  0
   19.1249   42.3243   -2.4379 H   0  0  0  0  0  0  0  0  0  0  0  0
   20.0613   43.7500   -2.0093 H   0  0  0  0  0  0  0  0  0  0  0  0
   22.5177   44.0124   -2.9539 H   0  0  0  0  0  0  0  0  0  0  0  0
   23.2606   42.6222   -3.7258 H   0  0  0  0  0  0  0  0  0  0  0  0
   22.8175   42.5495   -2.0400 H   0  0  0  0  0  0  0  0  0  0  0  0
   21.4092   40.3696   -2.6432 H   0  0  0  0  0  0  0  0  0  0  0  0
   21.9244   40.5768   -4.3018 H   0  0  0  0  0  0  0  0  0  0  0  0
   20.2084   40.4670   -3.9199 H   0  0  0  0  0  0  0  0  0  0  0  0
   21.8664   45.4238   -5.4232 H   0  0  0  0  0  0  0  0  0  0  0  0
   24.3010   43.9829   -8.4240 H   0  0  0  0  0  0  0  0  0  0  0  0
  1  2  1  0  0  0  0
  1 41  1  0  0  0  0
  1 42  1  0  0  0  0
  1 43  1  0  0  0  0
  2 38  1  1  0  0  0
  2 21  1  0  0  0  0
  2  3  1  0  0  0  0
  3  4  1  0  0  0  0
  3 44  1  0  0  0  0
  3 45  1  0  0  0  0
  4  5  1  0  0  0  0
  4 46  1  0  0  0  0
  4 47  1  0  0  0  0
  5  6  1  0  0  0  0
  5 48  1  0  0  0  0
  5 49  1  0  0  0  0
  6  7  1  0  0  0  0
  6 50  1  0  0  0  0
  6 51  1  0  0  0  0
  7  8  1  0  0  0  0
  7 52  1  0  0  0  0
  7 53  1  0  0  0  0
  8  9  1  0  0  0  0
  8 54  1  0  0  0  0
  8 55  1  0  0  0  0
  9 10  1  0  0  0  0
  9 56  1  0  0  0  0
  9 57  1  0  0  0  0
 10 11  1  0  0  0  0
 11 16  1  0  0  0  0
 11 12  2  0  0  0  0
 12 13  1  0  0  0  0
 12 58  1  0  0  0  0
 13 14  2  0  0  0  0
 13 17  1  0  0  0  0
 14 15  1  0  0  0  0
 14 59  1  0  0  0  0
 15 16  2  0  0  0  0
 15 60  1  0  0  0  0
 16 61  1  0  0  0  0
 17 18  2  0  0  0  0
 17 19  1  0  0  0  0
 19 20  1  0  0  0  0
 19 62  1  0  0  0  0
 20 39  1  1  0  0  0
 20 21  1  0  0  0  0
 20 22  1  0  0  0  0
 21 63  1  0  0  0  0
 21 64  1  0  0  0  0
 22 40  1  6  0  0  0
 22 23  1  0  0  0  0
 22 24  1  0  0  0  0
 23 65  1  0  0  0  0
 24 25  1  0  0  0  0
 24 66  1  0  0  0  0
 24 67  1  0  0  0  0
 25 26  1  0  0  0  0
 25 68  1  0  0  0  0
 26 27  1  0  0  0  0
 26 69  1  0  0  0  0
 26 70  1  0  0  0  0
 27 37  1  0  0  0  0
 27 28  2  0  0  0  0
 28 29  1  0  0  0  0
 28 71  1  0  0  0  0
 29 30  1  0  0  0  0
 29 35  2  0  0  0  0
 30 31  1  0  0  0  0
 30 72  1  0  0  0  0
 30 73  1  0  0  0  0
 31 32  1  0  0  0  0
 31 33  1  0  0  0  0
 31 34  1  0  0  0  0
 32 74  1  0  0  0  0
 32 75  1  0  0  0  0
 32 76  1  0  0  0  0
 33 77  1  0  0  0  0
 33 78  1  0  0  0  0
 33 79  1  0  0  0  0
 34 80  1  0  0  0  0
 34 81  1  0  0  0  0
 34 82  1  0  0  0  0
 35 36  1  0  0  0  0
 35 83  1  0  0  0  0
 36 37  2  0  0  0  0
 37 84  1  0  0  0  0
M  END
>  <s_m_source_file>
BACE_78.smi

>  <i_m_source_file_index>
1

>  <i_lp_mmshare_version>
42013

>  <i_f3d_flags>
0

>  <s_epik_input>
TzFbQ0gyXVtDSDJdW0NIMl1bQ0gyXVtDSDJdW0NIMl1bQ0gyXVtDQEBIXShbQ0gzXSlbQ0gyXVtDQEhdKFtOSF1DKD1PKWMoW2NIXWMxMilbY0hdW2NIXVtjSF0yKVtDQEhdKFtPSF0pW0NIMl1bTkhdW0NIMl1jM1tjSF1jKFtDSDJdQyhbQ0gzXSkoW0NIM10pW0NIM10pW2NIXW5bY0hdMw==

>  <s_epik_cmdline>
J2VwaWtfcHl0aG9uJywgJy1waCcsICc3LjAnLCAnLXRuJywgJzgnLCAnLW1hJywgJzIwMCcsICctaW1hZScsICc8aW5maWxlLm1hZT4nLCAnLW9tYWUnLCAnPG91dGZpbGUubWFlPic=

>  <r_lp_tautomer_probability>
1

>  <r_epik_Ionization_Penalty>
1.7209

>  <r_epik_Ionization_Penalty_Charging>
0.0000

>  <r_epik_Ionization_Penalty_Neutral>
1.7209

>  <r_epik_State_Penalty>
1.7908

>  <r_epik_Charging_Adjusted_Penalty>
1.79078

>  <i_epik_Tot_Q>
0

>  <i_epik_Tot_abs_Q>
0

>  <s_lp_Force_Field>
OPLS_2005

>  <r_lp_Energy>
45.3465

>  <b_lp_Chiralities_Consistent>
1

>  <s_lp_Variant>
BACE_78.smi:1-2

>  <chiral flag>
1

>  <version>
0

>  <s_i_glide_gridfile>
second_dock_grid_2

>  <i_i_glide_lignum>
33

>  <i_i_glide_rotatable_bonds>
8

>  <r_i_docking_score>
-3.83638

>  <r_i_glide_ligand_efficiency>
-0.103686

>  <r_i_glide_ligand_efficiency_sa>
-0.345505

>  <r_i_glide_ligand_efficiency_ln>
-0.832021

>  <r_glide_XP_GScore>
-5.62718

>  <r_i_glide_gscore>
-5.62718

>  <r_i_glide_evdw>
-42.5088

>  <r_i_glide_ecoul>
-7.56196

>  <r_i_glide_energy>
-50.0708

>  <r_i_glide_einternal>
5.72851

>  <r_i_glide_emodel>
-66.8677

>  <r_glide_XP_HBond>
-1.03266

>  <i_i_glide_confnum>
1

>  <i_i_glide_posenum>
2

>  <r_i_glide_eff_state_penalty>
1.7908

>  <i_glide_XP_PoseRank>
1

$$$$
