BACE_110.smi:1
 OpenBabel09301813003D
Structure written by MMmdl.
 83 86  0  0  1  0  0  0  0  0999 V2000
   15.5192   45.2100   -8.9759 C   0  0  0  0  0  0  0  0  0  0  0  0
   16.9348   44.6737   -8.9571 C   0  0  0  0  0  0  0  0  0  0  0  0
   17.6632   44.6374   -7.7535 C   0  0  0  0  0  0  0  0  0  0  0  0
   18.9635   44.1003   -7.7731 C   0  0  0  0  0  0  0  0  0  0  0  0
   19.4954   43.6644   -9.0064 C   0  0  0  0  0  0  0  0  0  0  0  0
   18.6854   43.7271  -10.1512 C   0  0  0  0  0  0  0  0  0  0  0  0
   17.4261   44.2280  -10.1345 N   0  0  0  0  0  0  0  0  0  0  0  0
   19.1759   43.2072  -11.3296 O   0  0  0  0  0  0  0  0  0  0  0  0
   18.2514   42.5686  -12.2077 C   0  0  0  0  0  0  0  0  0  0  0  0
   17.7326   41.2601  -11.5822 C   0  0  0  0  0  0  0  0  0  0  0  0
   18.8224   40.1848  -11.4449 C   0  0  0  0  0  0  0  0  0  0  0  0
   18.3613   38.9889  -10.5889 C   0  0  0  0  0  0  0  0  0  0  0  0
   18.4117   39.3000   -9.1973 O   0  0  0  0  0  0  0  0  0  0  0  0
   19.6358   39.3425   -8.5597 C   0  0  0  0  0  0  0  0  0  0  0  0
   19.6735   39.9189   -7.2708 C   0  0  0  0  0  0  0  0  0  0  0  0
   20.8918   40.0585   -6.5650 C   0  0  0  0  0  0  0  0  0  0  0  0
   20.9392   40.7642   -5.2142 C   0  0  0  0  0  0  0  0  0  0  0  0
   21.1736   42.2987   -5.2930 C   0  0  2  0  0  0  0  0  0  0  0  0
   20.4557   42.8381   -6.4370 N   0  0  0  0  0  0  0  0  0  0  0  0
   19.7474   43.9729   -6.5060 C   0  0  0  0  0  0  0  0  0  0  0  0
   19.6721   44.8114   -5.6067 O   0  0  0  0  0  0  0  0  0  0  0  0
   22.6809   42.6517   -5.3667 C   0  0  2  0  0  0  0  0  0  0  0  0
   23.2604   42.3213   -4.1222 O   0  0  0  0  0  0  0  0  0  0  0  0
   23.0187   44.1376   -5.6364 C   0  0  0  0  0  0  0  0  0  0  0  0
   24.4880   44.3344   -5.6402 N   0  3  0  0  0  0  0  0  0  0  0  0
   25.0704   45.6416   -6.0495 C   0  0  0  0  0  0  0  0  0  0  0  0
   26.6007   45.4457   -6.0205 C   0  0  0  0  0  0  0  0  0  0  0  0
   24.6956   45.9778   -7.5092 C   0  0  0  0  0  0  0  0  0  0  0  0
   24.6581   46.7772   -5.1113 C   0  0  0  0  0  0  0  0  0  0  0  0
   25.5260   47.4834   -4.2032 C   0  0  0  0  0  0  0  0  0  0  0  0
   24.8886   48.4880   -3.5220 C   0  0  0  0  0  0  0  0  0  0  0  0
   23.2378   48.4845   -4.0391 S   0  0  0  0  0  0  0  0  0  0  0  0
   23.4056   47.1922   -5.0958 N   0  0  0  0  0  0  0  0  0  0  0  0
   25.4246   49.4893   -2.5254 C   0  0  0  0  0  0  0  0  0  0  0  0
   26.8664   49.1404   -2.1029 C   0  0  0  0  0  0  0  0  0  0  0  0
   24.5574   49.5255   -1.2515 C   0  0  0  0  0  0  0  0  0  0  0  0
   25.4289   50.8941   -3.1483 C   0  0  0  0  0  0  0  0  0  0  0  0
   22.0797   39.5664   -7.1351 C   0  0  0  0  0  0  0  0  0  0  0  0
   22.0498   38.9633   -8.4026 C   0  0  0  0  0  0  0  0  0  0  0  0
   20.8448   38.8607   -9.1183 C   0  0  0  0  0  0  0  0  0  0  0  0
   20.7661   42.7508   -4.3852 H   0  0  0  0  0  0  0  0  0  0  0  0
   23.1522   42.0487   -6.1428 H   0  0  0  0  0  0  0  0  0  0  0  0
   15.4170   46.0263   -8.2614 H   0  0  0  0  0  0  0  0  0  0  0  0
   14.8145   44.4188   -8.7120 H   0  0  0  0  0  0  0  0  0  0  0  0
   15.2534   45.5872   -9.9641 H   0  0  0  0  0  0  0  0  0  0  0  0
   17.2194   44.9653   -6.8239 H   0  0  0  0  0  0  0  0  0  0  0  0
   20.4870   43.2413   -9.0779 H   0  0  0  0  0  0  0  0  0  0  0  0
   17.4269   43.2305  -12.4807 H   0  0  0  0  0  0  0  0  0  0  0  0
   18.7764   42.3450  -13.1373 H   0  0  0  0  0  0  0  0  0  0  0  0
   17.2918   41.4578  -10.6047 H   0  0  0  0  0  0  0  0  0  0  0  0
   16.9143   40.8694  -12.1850 H   0  0  0  0  0  0  0  0  0  0  0  0
   19.1012   39.8341  -12.4389 H   0  0  0  0  0  0  0  0  0  0  0  0
   19.7305   40.6171  -11.0252 H   0  0  0  0  0  0  0  0  0  0  0  0
   17.3266   38.7510  -10.8357 H   0  0  0  0  0  0  0  0  0  0  0  0
   18.9177   38.0811  -10.8239 H   0  0  0  0  0  0  0  0  0  0  0  0
   18.7570   40.2985   -6.8442 H   0  0  0  0  0  0  0  0  0  0  0  0
   19.9981   40.5707   -4.7044 H   0  0  0  0  0  0  0  0  0  0  0  0
   21.6836   40.2831   -4.5822 H   0  0  0  0  0  0  0  0  0  0  0  0
   20.3651   42.2111   -7.2260 H   0  0  0  0  0  0  0  0  0  0  0  0
   23.4090   41.3810   -4.0903 H   0  0  0  0  0  0  0  0  0  0  0  0
   22.6105   44.4403   -6.6004 H   0  0  0  0  0  0  0  0  0  0  0  0
   22.5545   44.7588   -4.8710 H   0  0  0  0  0  0  0  0  0  0  0  0
   24.7866   44.1610   -4.6832 H   0  0  0  0  0  0  0  0  0  0  0  0
   27.1307   46.3526   -6.3167 H   0  0  0  0  0  0  0  0  0  0  0  0
   26.9208   44.6572   -6.7033 H   0  0  0  0  0  0  0  0  0  0  0  0
   26.9547   45.1632   -5.0281 H   0  0  0  0  0  0  0  0  0  0  0  0
   25.2015   46.8856   -7.8432 H   0  0  0  0  0  0  0  0  0  0  0  0
   23.6274   46.1540   -7.6363 H   0  0  0  0  0  0  0  0  0  0  0  0
   24.9796   45.1722   -8.1872 H   0  0  0  0  0  0  0  0  0  0  0  0
   26.5762   47.2550   -4.0924 H   0  0  0  0  0  0  0  0  0  0  0  0
   27.2496   49.8568   -1.3778 H   0  0  0  0  0  0  0  0  0  0  0  0
   27.5504   49.1544   -2.9536 H   0  0  0  0  0  0  0  0  0  0  0  0
   26.9301   48.1505   -1.6522 H   0  0  0  0  0  0  0  0  0  0  0  0
   24.5125   48.5523   -0.7602 H   0  0  0  0  0  0  0  0  0  0  0  0
   23.5328   49.8295   -1.4696 H   0  0  0  0  0  0  0  0  0  0  0  0
   24.9535   50.2320   -0.5204 H   0  0  0  0  0  0  0  0  0  0  0  0
   25.7828   51.6389   -2.4395 H   0  0  0  0  0  0  0  0  0  0  0  0
   24.4340   51.2018   -3.4673 H   0  0  0  0  0  0  0  0  0  0  0  0
   26.0787   50.9344   -4.0192 H   0  0  0  0  0  0  0  0  0  0  0  0
   23.0189   39.6590   -6.6125 H   0  0  0  0  0  0  0  0  0  0  0  0
   22.9595   38.5833   -8.8388 H   0  0  0  0  0  0  0  0  0  0  0  0
   20.8830   38.4099  -10.0967 H   0  0  0  0  0  0  0  0  0  0  0  0
   24.8922   43.6176   -6.2254 H   0  0  0  0  0  0  0  0  0  0  0  0
  1  2  1  0  0  0  0
  1 43  1  0  0  0  0
  1 44  1  0  0  0  0
  1 45  1  0  0  0  0
  2  7  1  0  0  0  0
  2  3  2  0  0  0  0
  3  4  1  0  0  0  0
  3 46  1  0  0  0  0
  4 20  1  0  0  0  0
  4  5  2  0  0  0  0
  5  6  1  0  0  0  0
  5 47  1  0  0  0  0
  6  7  2  0  0  0  0
  6  8  1  0  0  0  0
  8  9  1  0  0  0  0
  9 10  1  0  0  0  0
  9 48  1  0  0  0  0
  9 49  1  0  0  0  0
 10 11  1  0  0  0  0
 10 50  1  0  0  0  0
 10 51  1  0  0  0  0
 11 12  1  0  0  0  0
 11 52  1  0  0  0  0
 11 53  1  0  0  0  0
 12 13  1  0  0  0  0
 12 54  1  0  0  0  0
 12 55  1  0  0  0  0
 13 14  1  0  0  0  0
 14 40  1  0  0  0  0
 14 15  2  0  0  0  0
 15 16  1  0  0  0  0
 15 56  1  0  0  0  0
 16 17  1  0  0  0  0
 16 38  2  0  0  0  0
 17 18  1  0  0  0  0
 17 57  1  0  0  0  0
 17 58  1  0  0  0  0
 18 41  1  1  0  0  0
 18 19  1  0  0  0  0
 18 22  1  0  0  0  0
 19 20  1  0  0  0  0
 19 59  1  0  0  0  0
 20 21  2  0  0  0  0
 22 42  1  6  0  0  0
 22 23  1  0  0  0  0
 22 24  1  0  0  0  0
 23 60  1  0  0  0  0
 24 25  1  0  0  0  0
 24 61  1  0  0  0  0
 24 62  1  0  0  0  0
 25 26  1  0  0  0  0
 25 63  1  0  0  0  0
 25 83  1  0  0  0  0
 26 27  1  0  0  0  0
 26 28  1  0  0  0  0
 26 29  1  0  0  0  0
 27 64  1  0  0  0  0
 27 65  1  0  0  0  0
 27 66  1  0  0  0  0
 28 67  1  0  0  0  0
 28 68  1  0  0  0  0
 28 69  1  0  0  0  0
 29 33  2  0  0  0  0
 29 30  1  0  0  0  0
 30 31  2  0  0  0  0
 30 70  1  0  0  0  0
 31 32  1  0  0  0  0
 31 34  1  0  0  0  0
 32 33  1  0  0  0  0
 34 35  1  0  0  0  0
 34 36  1  0  0  0  0
 34 37  1  0  0  0  0
 35 71  1  0  0  0  0
 35 72  1  0  0  0  0
 35 73  1  0  0  0  0
 36 74  1  0  0  0  0
 36 75  1  0  0  0  0
 36 76  1  0  0  0  0
 37 77  1  0  0  0  0
 37 78  1  0  0  0  0
 37 79  1  0  0  0  0
 38 39  1  0  0  0  0
 38 80  1  0  0  0  0
 39 40  2  0  0  0  0
 39 81  1  0  0  0  0
 40 82  1  0  0  0  0
M  CHG  1  25   1
M  END
>  <s_m_source_file>
BACE_110.smi

>  <i_m_source_file_index>
1

>  <i_lp_mmshare_version>
42013

>  <i_f3d_flags>
0

>  <s_epik_input>
YzEyW2NIXWMoW0NIM10pbmMoW2NIXTEpT1tDSDJdW0NIMl1bQ0gyXVtDSDJdT2MzW2NIXWMoW2NIXVtjSF1bY0hdMylbQ0gyXVtDQEhdKFtOSF1DMj1PKVtDQEhdKFtPSF0pW0NIMl1bTkhdQyhbQ0gzXSkoW0NIM10pYzRbY0hdYyhzbjQpQyhbQ0gzXSkoW0NIM10pW0NIM10=

>  <s_epik_cmdline>
J2VwaWtfcHl0aG9uJywgJy1waCcsICc3LjAnLCAnLXRuJywgJzgnLCAnLW1hJywgJzIwMCcsICctaW1hZScsICc8aW5maWxlLm1hZT4nLCAnLW9tYWUnLCAnPG91dGZpbGUubWFlPic=

>  <r_lp_tautomer_probability>
1

>  <r_epik_Ionization_Penalty>
0.0131

>  <r_epik_Ionization_Penalty_Charging>
0.0131

>  <r_epik_Ionization_Penalty_Neutral>
0.0000

>  <r_epik_State_Penalty>
0.0102

>  <r_epik_Charging_Adjusted_Penalty>
0.0232515

>  <i_epik_Tot_Q>
1

>  <i_epik_Tot_abs_Q>
1

>  <s_lp_Force_Field>
OPLS_2005

>  <r_lp_Energy>
15.3855

>  <b_lp_Chiralities_Consistent>
1

>  <s_lp_Variant>
BACE_110.smi:1-1

>  <chiral flag>
1

>  <version>
0

>  <s_i_glide_gridfile>
second_dock_grid_2

>  <i_i_glide_lignum>
48

>  <i_i_glide_rotatable_bonds>
7

>  <r_i_docking_score>
-3.76405

>  <r_i_glide_ligand_efficiency>
-0.0941013

>  <r_i_glide_ligand_efficiency_sa>
-0.321822

>  <r_i_glide_ligand_efficiency_ln>
-0.802762

>  <r_glide_XP_GScore>
-3.77425

>  <r_i_glide_gscore>
-3.77425

>  <r_i_glide_evdw>
-42.7637

>  <r_i_glide_ecoul>
-7.76864

>  <r_i_glide_energy>
-50.5324

>  <r_i_glide_einternal>
1.51381

>  <r_i_glide_emodel>
-64.4683

>  <r_glide_XP_HBond>
-0.508174

>  <i_i_glide_confnum>
1

>  <i_i_glide_posenum>
8

>  <r_i_glide_eff_state_penalty>
0.0102

>  <i_glide_XP_PoseRank>
1

$$$$
