BACE_83.smi:1
 OpenBabel09301813003D
Structure written by MMmdl.
 95 98  0  0  1  0  0  0  0  0999 V2000
   24.1153   43.7542   -5.9610 C   0  0  0  0  0  0  0  0  0  0  0  0
   23.1058   44.3943   -6.9398 C   0  0  2  0  0  0  0  0  0  0  0  0
   21.9362   45.0406   -6.1453 C   0  0  0  0  0  0  0  0  0  0  0  0
   22.0705   46.5361   -5.7476 C   0  0  0  0  0  0  0  0  0  0  0  0
   23.2413   46.9236   -4.8112 C   0  0  0  0  0  0  0  0  0  0  0  0
   24.4721   47.4477   -5.5813 C   0  0  0  0  0  0  0  0  0  0  0  0
   25.8417   47.1166   -4.9295 C   0  0  0  0  0  0  0  0  0  0  0  0
   27.0469   47.0775   -5.9039 C   0  0  0  0  0  0  0  0  0  0  0  0
   26.7369   46.2763   -7.1783 C   0  0  0  0  0  0  0  0  0  0  0  0
   27.8565   45.7534   -7.8837 O   0  0  0  0  0  0  0  0  0  0  0  0
   27.5475   44.9403   -8.9621 C   0  0  0  0  0  0  0  0  0  0  0  0
   28.5769   44.1649   -9.5354 C   0  0  0  0  0  0  0  0  0  0  0  0
   28.3237   43.3123  -10.6344 C   0  0  0  0  0  0  0  0  0  0  0  0
   27.0051   43.1973  -11.1373 C   0  0  0  0  0  0  0  0  0  0  0  0
   25.9616   43.9584  -10.5738 C   0  0  0  0  0  0  0  0  0  0  0  0
   26.2465   44.8411   -9.5160 C   0  0  0  0  0  0  0  0  0  0  0  0
   24.5610   43.8647  -11.1094 C   0  0  0  0  0  0  0  0  0  0  0  0
   24.3369   44.1096  -12.2921 O   0  0  0  0  0  0  0  0  0  0  0  0
   23.5674   43.5547  -10.2518 N   0  0  0  0  0  0  0  0  0  0  0  0
   23.6881   42.8462   -8.9678 C   0  0  1  0  0  0  0  0  0  0  0  0
   22.6071   43.3350   -7.9612 C   0  0  0  0  0  0  0  0  0  0  0  0
   23.6659   41.3087   -9.1880 C   0  0  2  0  0  0  0  0  0  0  0  0
   24.9544   40.9500   -9.6399 O   0  0  0  0  0  0  0  0  0  0  0  0
   22.6519   40.7616  -10.2140 C   0  0  0  0  0  0  0  0  0  0  0  0
   21.2721   40.7564   -9.7167 N   0  0  0  0  0  0  0  0  0  0  0  0
   20.2505   40.2412  -10.6425 C   0  0  0  0  0  0  0  0  0  0  0  0
   20.6218   39.7940  -12.0510 C   0  0  0  0  0  0  0  0  0  0  0  0
   19.9000   41.0959  -11.8476 C   0  0  0  0  0  0  0  0  0  0  0  0
   19.1524   39.5000   -9.9276 C   0  0  0  0  0  0  0  0  0  0  0  0
   17.9991   40.1557   -9.4429 C   0  0  0  0  0  0  0  0  0  0  0  0
   16.9731   39.3961   -8.8264 C   0  0  0  0  0  0  0  0  0  0  0  0
   17.1717   38.0009   -8.7373 C   0  0  0  0  0  0  0  0  0  0  0  0
   18.3573   37.4402   -9.2399 C   0  0  0  0  0  0  0  0  0  0  0  0
   19.3377   38.1682   -9.8123 N   0  0  0  0  0  0  0  0  0  0  0  0
   15.6510   40.0266   -8.3526 C   0  0  0  0  0  0  0  0  0  0  0  0
   14.6141   39.8298   -9.4751 C   0  0  0  0  0  0  0  0  0  0  0  0
   15.1318   39.3612   -7.0560 C   0  0  0  0  0  0  0  0  0  0  0  0
   15.7932   41.5370   -8.0590 C   0  0  0  0  0  0  0  0  0  0  0  0
   29.4449   42.4854  -11.2036 C   0  0  0  0  0  0  0  0  0  0  0  0
   30.0811   41.7523  -10.4428 O   0  0  0  0  0  0  0  0  0  0  0  0
   29.7293   42.6053  -12.5243 N   0  0  0  0  0  0  0  0  0  0  0  0
   29.1188   43.6041  -13.4082 C   0  0  0  0  0  0  0  0  0  0  0  0
   30.7549   41.7757  -13.1626 C   0  0  0  0  0  0  0  0  0  0  0  0
   23.6006   45.1748   -7.5154 H   0  0  0  0  0  0  0  0  0  0  0  0
   24.6549   43.0604   -8.5230 H   0  0  0  0  0  0  0  0  0  0  0  0
   23.5346   40.7980   -8.2326 H   0  0  0  0  0  0  0  0  0  0  0  0
   24.4910   44.4713   -5.2387 H   0  0  0  0  0  0  0  0  0  0  0  0
   24.9958   43.3494   -6.4559 H   0  0  0  0  0  0  0  0  0  0  0  0
   23.6583   42.9425   -5.3948 H   0  0  0  0  0  0  0  0  0  0  0  0
   21.7214   44.4447   -5.2564 H   0  0  0  0  0  0  0  0  0  0  0  0
   21.0297   44.9690   -6.7464 H   0  0  0  0  0  0  0  0  0  0  0  0
   21.1434   46.8074   -5.2408 H   0  0  0  0  0  0  0  0  0  0  0  0
   22.0856   47.1573   -6.6447 H   0  0  0  0  0  0  0  0  0  0  0  0
   23.4918   46.0852   -4.1643 H   0  0  0  0  0  0  0  0  0  0  0  0
   22.9153   47.7110   -4.1322 H   0  0  0  0  0  0  0  0  0  0  0  0
   24.4151   47.0262   -6.5788 H   0  0  0  0  0  0  0  0  0  0  0  0
   24.3883   48.5233   -5.7348 H   0  0  0  0  0  0  0  0  0  0  0  0
   26.0425   47.8212   -4.1217 H   0  0  0  0  0  0  0  0  0  0  0  0
   25.7821   46.1428   -4.4482 H   0  0  0  0  0  0  0  0  0  0  0  0
   27.3540   48.0865   -6.1760 H   0  0  0  0  0  0  0  0  0  0  0  0
   27.8948   46.6261   -5.3899 H   0  0  0  0  0  0  0  0  0  0  0  0
   26.0968   45.4366   -6.9077 H   0  0  0  0  0  0  0  0  0  0  0  0
   26.1842   46.9367   -7.8485 H   0  0  0  0  0  0  0  0  0  0  0  0
   29.5744   44.2295   -9.1231 H   0  0  0  0  0  0  0  0  0  0  0  0
   26.7837   42.5103  -11.9426 H   0  0  0  0  0  0  0  0  0  0  0  0
   25.4208   45.4225   -9.1333 H   0  0  0  0  0  0  0  0  0  0  0  0
   22.6385   43.5795  -10.6415 H   0  0  0  0  0  0  0  0  0  0  0  0
   21.7534   43.7207   -8.5199 H   0  0  0  0  0  0  0  0  0  0  0  0
   22.2104   42.4877   -7.3994 H   0  0  0  0  0  0  0  0  0  0  0  0
   24.9886   40.0009   -9.7208 H   0  0  0  0  0  0  0  0  0  0  0  0
   22.9308   39.7355  -10.4404 H   0  0  0  0  0  0  0  0  0  0  0  0
   22.7337   41.3130  -11.1505 H   0  0  0  0  0  0  0  0  0  0  0  0
   21.2001   40.2547   -8.8356 H   0  0  0  0  0  0  0  0  0  0  0  0
   21.6437   39.8589  -12.4207 H   0  0  0  0  0  0  0  0  0  0  0  0
   20.0597   38.9461  -12.4223 H   0  0  0  0  0  0  0  0  0  0  0  0
   18.8586   41.1381  -12.1631 H   0  0  0  0  0  0  0  0  0  0  0  0
   20.4749   42.0032  -12.0194 H   0  0  0  0  0  0  0  0  0  0  0  0
   17.9159   41.2231   -9.5738 H   0  0  0  0  0  0  0  0  0  0  0  0
   16.4338   37.3472   -8.2973 H   0  0  0  0  0  0  0  0  0  0  0  0
   18.4998   36.3723   -9.1994 H   0  0  0  0  0  0  0  0  0  0  0  0
   14.9613   40.2586  -10.4146 H   0  0  0  0  0  0  0  0  0  0  0  0
   13.6606   40.2978   -9.2384 H   0  0  0  0  0  0  0  0  0  0  0  0
   14.4185   38.7703   -9.6488 H   0  0  0  0  0  0  0  0  0  0  0  0
   15.8739   39.4031   -6.2573 H   0  0  0  0  0  0  0  0  0  0  0  0
   14.8590   38.3150   -7.1918 H   0  0  0  0  0  0  0  0  0  0  0  0
   14.2342   39.8550   -6.6825 H   0  0  0  0  0  0  0  0  0  0  0  0
   16.5727   41.7245   -7.3179 H   0  0  0  0  0  0  0  0  0  0  0  0
   14.8660   41.9462   -7.6551 H   0  0  0  0  0  0  0  0  0  0  0  0
   16.0256   42.1135   -8.9536 H   0  0  0  0  0  0  0  0  0  0  0  0
   29.1997   44.6055  -12.9795 H   0  0  0  0  0  0  0  0  0  0  0  0
   28.0645   43.3851  -13.5839 H   0  0  0  0  0  0  0  0  0  0  0  0
   29.5960   43.6337  -14.3898 H   0  0  0  0  0  0  0  0  0  0  0  0
   31.3404   42.3462  -13.8832 H   0  0  0  0  0  0  0  0  0  0  0  0
   30.2805   40.9506  -13.6939 H   0  0  0  0  0  0  0  0  0  0  0  0
   31.4673   41.3508  -12.4547 H   0  0  0  0  0  0  0  0  0  0  0  0
  1  2  1  0  0  0  0
  1 47  1  0  0  0  0
  1 48  1  0  0  0  0
  1 49  1  0  0  0  0
  2 44  1  6  0  0  0
  2 21  1  0  0  0  0
  2  3  1  0  0  0  0
  3  4  1  0  0  0  0
  3 50  1  0  0  0  0
  3 51  1  0  0  0  0
  4  5  1  0  0  0  0
  4 52  1  0  0  0  0
  4 53  1  0  0  0  0
  5  6  1  0  0  0  0
  5 54  1  0  0  0  0
  5 55  1  0  0  0  0
  6  7  1  0  0  0  0
  6 56  1  0  0  0  0
  6 57  1  0  0  0  0
  7  8  1  0  0  0  0
  7 58  1  0  0  0  0
  7 59  1  0  0  0  0
  8  9  1  0  0  0  0
  8 60  1  0  0  0  0
  8 61  1  0  0  0  0
  9 10  1  0  0  0  0
  9 62  1  0  0  0  0
  9 63  1  0  0  0  0
 10 11  1  0  0  0  0
 11 16  1  0  0  0  0
 11 12  2  0  0  0  0
 12 13  1  0  0  0  0
 12 64  1  0  0  0  0
 13 14  2  0  0  0  0
 13 39  1  0  0  0  0
 14 15  1  0  0  0  0
 14 65  1  0  0  0  0
 15 16  2  0  0  0  0
 15 17  1  0  0  0  0
 16 66  1  0  0  0  0
 17 18  2  0  0  0  0
 17 19  1  0  0  0  0
 19 20  1  0  0  0  0
 19 67  1  0  0  0  0
 20 45  1  1  0  0  0
 20 21  1  0  0  0  0
 20 22  1  0  0  0  0
 21 68  1  0  0  0  0
 21 69  1  0  0  0  0
 22 46  1  1  0  0  0
 22 23  1  0  0  0  0
 22 24  1  0  0  0  0
 23 70  1  0  0  0  0
 24 25  1  0  0  0  0
 24 71  1  0  0  0  0
 24 72  1  0  0  0  0
 25 26  1  0  0  0  0
 25 73  1  0  0  0  0
 26 28  1  0  0  0  0
 26 27  1  0  0  0  0
 26 29  1  0  0  0  0
 27 28  1  0  0  0  0
 27 74  1  0  0  0  0
 27 75  1  0  0  0  0
 28 76  1  0  0  0  0
 28 77  1  0  0  0  0
 29 34  1  0  0  0  0
 29 30  2  0  0  0  0
 30 31  1  0  0  0  0
 30 78  1  0  0  0  0
 31 32  2  0  0  0  0
 31 35  1  0  0  0  0
 32 33  1  0  0  0  0
 32 79  1  0  0  0  0
 33 34  2  0  0  0  0
 33 80  1  0  0  0  0
 35 36  1  0  0  0  0
 35 37  1  0  0  0  0
 35 38  1  0  0  0  0
 36 81  1  0  0  0  0
 36 82  1  0  0  0  0
 36 83  1  0  0  0  0
 37 84  1  0  0  0  0
 37 85  1  0  0  0  0
 37 86  1  0  0  0  0
 38 87  1  0  0  0  0
 38 88  1  0  0  0  0
 38 89  1  0  0  0  0
 39 40  2  0  0  0  0
 39 41  1  0  0  0  0
 41 42  1  0  0  0  0
 41 43  1  0  0  0  0
 42 90  1  0  0  0  0
 42 91  1  0  0  0  0
 42 92  1  0  0  0  0
 43 93  1  0  0  0  0
 43 94  1  0  0  0  0
 43 95  1  0  0  0  0
M  END
>  <s_m_source_file>
BACE_83.smi

>  <i_m_source_file_index>
1

>  <i_lp_mmshare_version>
42013

>  <i_f3d_flags>
0

>  <s_epik_input>
TzFbQ0gyXVtDSDJdW0NIMl1bQ0gyXVtDSDJdW0NIMl1bQ0gyXVtDQEBIXShbQ0gzXSlbQ0gyXVtDQEhdKFtOSF1DKD1PKWMoW2NIXTIpW2NIXWMoW2NIXWMxMilDKD1PKU4oW0NIM10pW0NIM10pW0NASF0oW09IXSlbQ0gyXVtOSF1DMyhbQ0gyXVtDSDJdMyljNFtjSF1jKFtjSF1bY0hdbjQpQyhbQ0gzXSkoW0NIM10pW0NIM10=

>  <s_epik_cmdline>
J2VwaWtfcHl0aG9uJywgJy1waCcsICc3LjAnLCAnLXRuJywgJzgnLCAnLW1hJywgJzIwMCcsICctaW1hZScsICc8aW5maWxlLm1hZT4nLCAnLW9tYWUnLCAnPG91dGZpbGUubWFlPic=

>  <r_lp_tautomer_probability>
1

>  <r_epik_Ionization_Penalty>
0.2176

>  <r_epik_Ionization_Penalty_Charging>
0.0000

>  <r_epik_Ionization_Penalty_Neutral>
0.2176

>  <r_epik_State_Penalty>
0.0835

>  <r_epik_Charging_Adjusted_Penalty>
0.0835319

>  <i_epik_Tot_Q>
0

>  <i_epik_Tot_abs_Q>
0

>  <s_lp_Force_Field>
OPLS_2005

>  <r_lp_Energy>
61.4103

>  <b_lp_Chiralities_Consistent>
1

>  <s_lp_Variant>
BACE_83.smi:1-1

>  <chiral flag>
1

>  <version>
0

>  <s_i_glide_gridfile>
second_dock_grid_2

>  <i_i_glide_lignum>
37

>  <i_i_glide_rotatable_bonds>
9

>  <r_i_docking_score>
-3.22427

>  <r_i_glide_ligand_efficiency>
-0.074983

>  <r_i_glide_ligand_efficiency_sa>
-0.262695

>  <r_i_glide_ligand_efficiency_ln>
-0.677197

>  <r_glide_XP_GScore>
-3.30777

>  <r_i_glide_gscore>
-3.30777

>  <r_i_glide_evdw>
-44.9584

>  <r_i_glide_ecoul>
-8.40942

>  <r_i_glide_energy>
-53.3678

>  <r_i_glide_einternal>
8.00475

>  <r_i_glide_emodel>
-68.2519

>  <r_glide_XP_HBond>
-1.65181

>  <i_i_glide_confnum>
1

>  <i_i_glide_posenum>
11

>  <r_i_glide_eff_state_penalty>
0.0835

>  <i_glide_XP_PoseRank>
1

$$$$
