BACE_123.smi:1
                    3D
 Structure written by MMmdl.
 85 88  0  0  1  0            999 V2000
   -4.1697   -4.1155   -1.5231 C   0  0  0  0  0  0
   -3.3056   -2.8495   -1.4252 C   0  0  0  0  0  0
   -2.1811   -2.8721   -2.4758 C   0  0  0  0  0  0
   -2.7727   -2.6615    0.0102 C   0  0  0  0  0  0
   -2.0338   -1.3505    0.2093 C   0  0  0  0  0  0
   -0.6262   -1.3022    0.1863 C   0  0  0  0  0  0
    0.0334   -0.0606    0.3399 C   0  0  0  0  0  0
   -0.7817    1.0829    0.5315 C   0  0  0  0  0  0
   -2.1305    1.0457    0.5669 N   0  0  0  0  0  0
   -2.7390   -0.1471    0.4078 C   0  0  0  0  0  0
    1.5683    0.0087    0.2630 C   0  0  0  0  0  0
    2.1279    1.4379    0.4575 C   0  0  0  0  0  0
    2.1746   -0.8722    1.3739 C   0  0  0  0  0  0
    2.0316   -0.5257   -1.0455 N   0  3  0  0  0  0
    1.4927    0.1118   -2.2714 C   0  0  0  0  0  0
    1.9393   -0.6523   -3.5349 C   0  0  1  0  0  0
    1.3615   -1.9432   -3.4715 O   0  0  0  0  0  0
    1.4953    0.0222   -4.8562 C   0  0  2  0  0  0
    2.0073   -0.7254   -6.1127 C   0  0  0  0  0  0
    1.5762   -0.0840   -7.4234 C   0  0  0  0  0  0
    2.4814    0.6986   -8.1719 C   0  0  0  0  0  0
    2.0838    1.3227   -9.3732 C   0  0  0  0  0  0
    0.7564    1.1343   -9.8319 C   0  0  0  0  0  0
   -0.1489    0.3504   -9.0913 C   0  0  0  0  0  0
    0.2579   -0.2565   -7.8892 C   0  0  0  0  0  0
    3.0357    2.0796  -10.0254 O   0  0  0  0  0  0
    2.6538    2.9281  -11.1075 C   0  0  0  0  0  0
    1.8634    4.1637  -10.6337 C   0  0  0  0  0  0
    2.6157    4.9885   -9.5794 C   0  0  0  0  0  0
    1.7345    6.0854   -8.9509 C   0  0  0  0  0  0
    2.3035    6.6290   -7.7225 N   0  0  0  0  0  0
    2.4431    5.8107   -6.5891 C   0  0  0  0  0  0
    1.7085    4.6128   -6.4189 C   0  0  0  0  0  0
    1.9445    3.7712   -5.3127 C   0  0  0  0  0  0
    2.8873    4.1565   -4.3347 C   0  0  0  0  0  0
    3.5938    5.3663   -4.4764 C   0  0  0  0  0  0
    3.3752    6.1863   -5.6003 C   0  0  0  0  0  0
    1.1919    2.4818   -5.1957 C   0  0  0  0  0  0
   -0.0118    2.4255   -5.4457 O   0  0  0  0  0  0
    1.9477    1.4147   -4.8900 N   0  0  0  0  0  0
    3.0253   -0.7571   -3.5289 H   0  0  0  0  0  0
    0.4038    0.0016   -4.8783 H   0  0  0  0  0  0
   -3.5866   -5.0110   -1.3063 H   0  0  0  0  0  0
   -4.5933   -4.2268   -2.5216 H   0  0  0  0  0  0
   -5.0006   -4.0810   -0.8178 H   0  0  0  0  0  0
   -3.9533   -2.0023   -1.6551 H   0  0  0  0  0  0
   -1.4709   -3.6756   -2.2782 H   0  0  0  0  0  0
   -1.6274   -1.9331   -2.4937 H   0  0  0  0  0  0
   -2.5845   -3.0251   -3.4772 H   0  0  0  0  0  0
   -3.6013   -2.6924    0.7189 H   0  0  0  0  0  0
   -2.1161   -3.4908    0.2779 H   0  0  0  0  0  0
   -0.0613   -2.2082    0.0229 H   0  0  0  0  0  0
   -0.3607    2.0686    0.6540 H   0  0  0  0  0  0
   -3.8189   -0.1391    0.4301 H   0  0  0  0  0  0
    1.8794    1.8303    1.4445 H   0  0  0  0  0  0
    1.7430    2.1433   -0.2790 H   0  0  0  0  0  0
    3.2155    1.4494    0.3742 H   0  0  0  0  0  0
    1.8486   -0.5415    2.3610 H   0  0  0  0  0  0
    3.2646   -0.8344    1.3614 H   0  0  0  0  0  0
    1.8916   -1.9199    1.2706 H   0  0  0  0  0  0
    3.0395   -0.4677   -1.0744 H   0  0  0  0  0  0
    0.4037    0.1606   -2.2447 H   0  0  0  0  0  0
    1.8547    1.1382   -2.3057 H   0  0  0  0  0  0
    0.4238   -1.8610   -3.5602 H   0  0  0  0  0  0
    3.0962   -0.7880   -6.0889 H   0  0  0  0  0  0
    1.6485   -1.7552   -6.1121 H   0  0  0  0  0  0
    3.4913    0.8384   -7.8141 H   0  0  0  0  0  0
    0.4063    1.5822  -10.7489 H   0  0  0  0  0  0
   -1.1601    0.2167   -9.4461 H   0  0  0  0  0  0
   -0.4454   -0.8498   -7.3233 H   0  0  0  0  0  0
    3.5723    3.2631  -11.5897 H   0  0  0  0  0  0
    2.1096    2.3743  -11.8727 H   0  0  0  0  0  0
    1.6311    4.7964  -11.4909 H   0  0  0  0  0  0
    0.9035    3.8505  -10.2246 H   0  0  0  0  0  0
    2.9696    4.3086   -8.8053 H   0  0  0  0  0  0
    3.5108    5.4336  -10.0152 H   0  0  0  0  0  0
    1.6089    6.9017   -9.6625 H   0  0  0  0  0  0
    0.7304    5.7131   -8.7481 H   0  0  0  0  0  0
    2.9125    7.4303   -7.8070 H   0  0  0  0  0  0
    0.9845    4.3003   -7.1566 H   0  0  0  0  0  0
    3.0724    3.5320   -3.4726 H   0  0  0  0  0  0
    4.3148    5.6610   -3.7282 H   0  0  0  0  0  0
    3.9404    7.1011   -5.7075 H   0  0  0  0  0  0
    2.9330    1.5738   -4.7369 H   0  0  0  0  0  0
    1.7739   -1.5017   -1.0827 H   0  0  0  0  0  0
  1  2  1  0  0  0
  1 43  1  0  0  0
  1 44  1  0  0  0
  1 45  1  0  0  0
  2  3  1  0  0  0
  2  4  1  0  0  0
  2 46  1  0  0  0
  3 47  1  0  0  0
  3 48  1  0  0  0
  3 49  1  0  0  0
  4  5  1  0  0  0
  4 50  1  0  0  0
  4 51  1  0  0  0
  5 10  1  0  0  0
  5  6  2  0  0  0
  6  7  1  0  0  0
  6 52  1  0  0  0
  7  8  2  0  0  0
  7 11  1  0  0  0
  8  9  1  0  0  0
  8 53  1  0  0  0
  9 10  2  0  0  0
 10 54  1  0  0  0
 11 12  1  0  0  0
 11 13  1  0  0  0
 11 14  1  0  0  0
 12 55  1  0  0  0
 12 56  1  0  0  0
 12 57  1  0  0  0
 13 58  1  0  0  0
 13 59  1  0  0  0
 13 60  1  0  0  0
 14 15  1  0  0  0
 14 61  1  0  0  0
 14 85  1  0  0  0
 15 16  1  0  0  0
 15 62  1  0  0  0
 15 63  1  0  0  0
 16 41  1  0  0  0
 16 17  1  0  0  0
 16 18  1  0  0  0
 17 64  1  0  0  0
 18 42  1  0  0  0
 18 40  1  0  0  0
 18 19  1  0  0  0
 19 20  1  0  0  0
 19 65  1  0  0  0
 19 66  1  0  0  0
 20 25  1  0  0  0
 20 21  2  0  0  0
 21 22  1  0  0  0
 21 67  1  0  0  0
 22 23  2  0  0  0
 22 26  1  0  0  0
 23 24  1  0  0  0
 23 68  1  0  0  0
 24 25  2  0  0  0
 24 69  1  0  0  0
 25 70  1  0  0  0
 26 27  1  0  0  0
 27 28  1  0  0  0
 27 71  1  0  0  0
 27 72  1  0  0  0
 28 29  1  0  0  0
 28 73  1  0  0  0
 28 74  1  0  0  0
 29 30  1  0  0  0
 29 75  1  0  0  0
 29 76  1  0  0  0
 30 31  1  0  0  0
 30 77  1  0  0  0
 30 78  1  0  0  0
 31 32  1  0  0  0
 31 79  1  0  0  0
 32 37  1  0  0  0
 32 33  2  0  0  0
 33 34  1  0  0  0
 33 80  1  0  0  0
 34 35  2  0  0  0
 34 38  1  0  0  0
 35 36  1  0  0  0
 35 81  1  0  0  0
 36 37  2  0  0  0
 36 82  1  0  0  0
 37 83  1  0  0  0
 38 39  2  0  0  0
 38 40  1  0  0  0
 40 84  1  0  0  0
M  CHG  1  14   1
M  END
> <s_m_source_file>
BACE_123.smi

> <i_m_source_file_index>
1

> <i_lp_mmshare_version>
42013

> <i_f3d_flags>
0

> <s_epik_input>
W0NIM11bQ0hdKFtDSDNdKVtDSDJdYzFbY0hdYyhbY0hdbltjSF0xKUMoW0NIM10pKFtDSDNdKVtOSF1bQ0gyXVtDQEBIXShbT0hdKVtDQEhdKFtDSDJdMilbTkhdQyg9TyljKFtjSF1bY0hdW2NIXTMpW2NIXWMzW05IXVtDSDJdW0NIMl1bQ0gyXVtDSDJdT2MoW2NIXWMyNClbY0hdW2NIXVtjSF00

> <s_epik_cmdline>
J2VwaWtfcHl0aG9uJywgJy1waCcsICc3LjAnLCAnLXRuJywgJzgnLCAnLW1hJywgJzIwMCcsICctaW1hZScsICc8aW5maWxlLm1hZT4nLCAnLW9tYWUnLCAnPG91dGZpbGUubWFlPic=

> <r_lp_tautomer_probability>
1

> <r_epik_Ionization_Penalty>
0.0521918

> <r_epik_Ionization_Penalty_Charging>
0.0421652

> <r_epik_Ionization_Penalty_Neutral>
0.0100266

> <r_epik_State_Penalty>
0.0355992

> <r_epik_Charging_Adjusted_Penalty>
0.0777645

> <i_epik_Tot_Q>
1

> <i_epik_Tot_abs_Q>
1

> <s_lp_Force_Field>
OPLS_2005

> <r_lp_Energy>
31.1625

> <b_lp_Chiralities_Consistent>
1

> <s_lp_Variant>
BACE_123.smi:1-1

$$$$
BACE_123.smi:1
                    3D
 Structure written by MMmdl.
 84 87  0  0  1  0            999 V2000
   -4.6332   -4.1424    0.1683 C   0  0  0  0  0  0
   -3.7968   -2.8915   -0.1381 C   0  0  0  0  0  0
   -2.9704   -3.0897   -1.4211 C   0  0  0  0  0  0
   -2.9249   -2.5049    1.0743 C   0  0  0  0  0  0
   -2.1996   -1.1833    0.8964 C   0  0  0  0  0  0
   -0.8536   -1.1481    0.4818 C   0  0  0  0  0  0
   -0.2124    0.0990    0.2885 C   0  0  0  0  0  0
   -0.9701    1.2608    0.5765 C   0  0  0  0  0  0
   -2.2567    1.2393    0.9858 N   0  0  0  0  0  0
   -2.8555    0.0403    1.1345 C   0  0  0  0  0  0
    1.2531    0.1730   -0.1760 C   0  0  0  0  0  0
    1.5775    1.4943   -0.9155 C   0  0  0  0  0  0
    2.1496    0.0927    1.0727 C   0  0  0  0  0  0
    1.6014   -0.9728   -1.0352 N   0  0  0  0  0  0
    0.9917   -1.0306   -2.3674 C   0  0  0  0  0  0
    1.3507   -2.3503   -3.0826 C   0  0  1  0  0  0
    0.5626   -3.3657   -2.4909 O   0  0  0  0  0  0
    1.0582   -2.3390   -4.6035 C   0  0  2  0  0  0
    1.5051   -3.6516   -5.2966 C   0  0  0  0  0  0
    1.2707   -3.6736   -6.8000 C   0  0  0  0  0  0
    2.3383   -3.4494   -7.6956 C   0  0  0  0  0  0
    2.1293   -3.4426   -9.0908 C   0  0  0  0  0  0
    0.8239   -3.6870   -9.5850 C   0  0  0  0  0  0
   -0.2435   -3.9168   -8.6957 C   0  0  0  0  0  0
   -0.0228   -3.9088   -7.3064 C   0  0  0  0  0  0
    3.2321   -3.1989   -9.8839 O   0  0  0  0  0  0
    3.0643   -2.9387  -11.2771 C   0  0  0  0  0  0
    2.4485   -1.5508  -11.5436 C   0  0  0  0  0  0
    3.2548   -0.4073  -10.9111 C   0  0  0  0  0  0
    2.5244    0.9474  -10.9959 C   0  0  0  0  0  0
    3.0855    1.9469  -10.0934 N   0  0  0  0  0  0
    2.9976    1.7732   -8.7017 C   0  0  0  0  0  0
    2.0852    0.8717   -8.1037 C   0  0  0  0  0  0
    2.0908    0.6549   -6.7109 C   0  0  0  0  0  0
    2.9790    1.3902   -5.8960 C   0  0  0  0  0  0
    3.8618    2.3196   -6.4787 C   0  0  0  0  0  0
    3.8743    2.5053   -7.8750 C   0  0  0  0  0  0
    1.1533   -0.3527   -6.1212 C   0  0  0  0  0  0
   -0.0141   -0.4310   -6.5040 O   0  0  0  0  0  0
    1.7130   -1.1911   -5.2342 N   0  0  0  0  0  0
    2.4055   -2.5811   -2.9236 H   0  0  0  0  0  0
   -0.0221   -2.2413   -4.7288 H   0  0  0  0  0  0
   -3.9966   -5.0073    0.3570 H   0  0  0  0  0  0
   -5.2915   -4.3893   -0.6651 H   0  0  0  0  0  0
   -5.2604   -3.9922    1.0474 H   0  0  0  0  0  0
   -4.4978   -2.0757   -0.3198 H   0  0  0  0  0  0
   -2.2206   -3.8709   -1.2919 H   0  0  0  0  0  0
   -2.4523   -2.1757   -1.7117 H   0  0  0  0  0  0
   -3.6083   -3.3767   -2.2572 H   0  0  0  0  0  0
   -3.5454   -2.4305    1.9682 H   0  0  0  0  0  0
   -2.1965   -3.2912    1.2774 H   0  0  0  0  0  0
   -0.3308   -2.0759    0.3015 H   0  0  0  0  0  0
   -0.5472    2.2487    0.4821 H   0  0  0  0  0  0
   -3.8874    0.0585    1.4535 H   0  0  0  0  0  0
    1.5329    2.3560   -0.2493 H   0  0  0  0  0  0
    0.8868    1.6838   -1.7379 H   0  0  0  0  0  0
    2.5865    1.4761   -1.3301 H   0  0  0  0  0  0
    1.9489    0.9155    1.7601 H   0  0  0  0  0  0
    3.2074    0.1372    0.8094 H   0  0  0  0  0  0
    1.9877   -0.8366    1.6208 H   0  0  0  0  0  0
    2.6067   -1.1068   -1.0772 H   0  0  0  0  0  0
   -0.0912   -0.9143   -2.3106 H   0  0  0  0  0  0
    1.3582   -0.1892   -2.9531 H   0  0  0  0  0  0
   -0.3485   -3.1391   -2.5983 H   0  0  0  0  0  0
    2.5642   -3.8275   -5.1037 H   0  0  0  0  0  0
    0.9787   -4.5031   -4.8641 H   0  0  0  0  0  0
    3.3302   -3.2637   -7.3100 H   0  0  0  0  0  0
    0.6135   -3.7016  -10.6430 H   0  0  0  0  0  0
   -1.2358   -4.0978   -9.0817 H   0  0  0  0  0  0
   -0.8481   -4.0792   -6.6307 H   0  0  0  0  0  0
    4.0548   -2.9763  -11.7310 H   0  0  0  0  0  0
    2.4931   -3.7302  -11.7626 H   0  0  0  0  0  0
    2.3711   -1.3884  -12.6189 H   0  0  0  0  0  0
    1.4280   -1.5218  -11.1629 H   0  0  0  0  0  0
    3.4447   -0.6622   -9.8693 H   0  0  0  0  0  0
    4.2358   -0.3319  -11.3810 H   0  0  0  0  0  0
    2.5856    1.3294  -12.0152 H   0  0  0  0  0  0
    1.4606    0.8334  -10.7873 H   0  0  0  0  0  0
    3.8098    2.5506  -10.4554 H   0  0  0  0  0  0
    1.3979    0.2996   -8.7090 H   0  0  0  0  0  0
    2.9874    1.2489   -4.8247 H   0  0  0  0  0  0
    4.5404    2.8821   -5.8548 H   0  0  0  0  0  0
    4.5726    3.2050   -8.3106 H   0  0  0  0  0  0
    2.6880   -1.0507   -5.0124 H   0  0  0  0  0  0
  1  2  1  0  0  0
  1 43  1  0  0  0
  1 44  1  0  0  0
  1 45  1  0  0  0
  2  3  1  0  0  0
  2  4  1  0  0  0
  2 46  1  0  0  0
  3 47  1  0  0  0
  3 48  1  0  0  0
  3 49  1  0  0  0
  4  5  1  0  0  0
  4 50  1  0  0  0
  4 51  1  0  0  0
  5 10  1  0  0  0
  5  6  2  0  0  0
  6  7  1  0  0  0
  6 52  1  0  0  0
  7  8  2  0  0  0
  7 11  1  0  0  0
  8  9  1  0  0  0
  8 53  1  0  0  0
  9 10  2  0  0  0
 10 54  1  0  0  0
 11 12  1  0  0  0
 11 13  1  0  0  0
 11 14  1  0  0  0
 12 55  1  0  0  0
 12 56  1  0  0  0
 12 57  1  0  0  0
 13 58  1  0  0  0
 13 59  1  0  0  0
 13 60  1  0  0  0
 14 15  1  0  0  0
 14 61  1  0  0  0
 15 16  1  0  0  0
 15 62  1  0  0  0
 15 63  1  0  0  0
 16 41  1  0  0  0
 16 17  1  0  0  0
 16 18  1  0  0  0
 17 64  1  0  0  0
 18 42  1  0  0  0
 18 40  1  0  0  0
 18 19  1  0  0  0
 19 20  1  0  0  0
 19 65  1  0  0  0
 19 66  1  0  0  0
 20 25  1  0  0  0
 20 21  2  0  0  0
 21 22  1  0  0  0
 21 67  1  0  0  0
 22 23  2  0  0  0
 22 26  1  0  0  0
 23 24  1  0  0  0
 23 68  1  0  0  0
 24 25  2  0  0  0
 24 69  1  0  0  0
 25 70  1  0  0  0
 26 27  1  0  0  0
 27 28  1  0  0  0
 27 71  1  0  0  0
 27 72  1  0  0  0
 28 29  1  0  0  0
 28 73  1  0  0  0
 28 74  1  0  0  0
 29 30  1  0  0  0
 29 75  1  0  0  0
 29 76  1  0  0  0
 30 31  1  0  0  0
 30 77  1  0  0  0
 30 78  1  0  0  0
 31 32  1  0  0  0
 31 79  1  0  0  0
 32 37  1  0  0  0
 32 33  2  0  0  0
 33 34  1  0  0  0
 33 80  1  0  0  0
 34 35  2  0  0  0
 34 38  1  0  0  0
 35 36  1  0  0  0
 35 81  1  0  0  0
 36 37  2  0  0  0
 36 82  1  0  0  0
 37 83  1  0  0  0
 38 39  2  0  0  0
 38 40  1  0  0  0
 40 84  1  0  0  0
M  END
> <s_m_source_file>
BACE_123.smi

> <i_m_source_file_index>
1

> <i_lp_mmshare_version>
42013

> <i_f3d_flags>
0

> <s_epik_input>
W0NIM11bQ0hdKFtDSDNdKVtDSDJdYzFbY0hdYyhbY0hdbltjSF0xKUMoW0NIM10pKFtDSDNdKVtOSF1bQ0gyXVtDQEBIXShbT0hdKVtDQEhdKFtDSDJdMilbTkhdQyg9TyljKFtjSF1bY0hdW2NIXTMpW2NIXWMzW05IXVtDSDJdW0NIMl1bQ0gyXVtDSDJdT2MoW2NIXWMyNClbY0hdW2NIXVtjSF00

> <s_epik_cmdline>
J2VwaWtfcHl0aG9uJywgJy1waCcsICc3LjAnLCAnLXRuJywgJzgnLCAnLW1hJywgJzIwMCcsICctaW1hZScsICc8aW5maWxlLm1hZT4nLCAnLW9tYWUnLCAnPG91dGZpbGUubWFlPic=

> <r_lp_tautomer_probability>
1

> <r_epik_Ionization_Penalty>
1.61975

> <r_epik_Ionization_Penalty_Charging>
0

> <r_epik_Ionization_Penalty_Neutral>
1.61975

> <r_epik_State_Penalty>
1.68378

> <r_epik_Charging_Adjusted_Penalty>
1.68378

> <i_epik_Tot_Q>
0

> <i_epik_Tot_abs_Q>
0

> <s_lp_Force_Field>
OPLS_2005

> <r_lp_Energy>
36.7481

> <b_lp_Chiralities_Consistent>
1

> <s_lp_Variant>
BACE_123.smi:1-2

$$$$
