BACE_91.smi:1
                    3D
 Structure written by MMmdl.
 92 95  0  0  1  0            999 V2000
    0.3800   -4.8661   -1.9915 C   0  0  0  0  0  0
    0.4351   -3.8140   -3.1105 C   0  0  0  0  0  0
    1.8816   -3.5013   -3.5242 C   0  0  0  0  0  0
   -0.3256   -2.5484   -2.7349 C   0  0  0  0  0  0
    0.0633   -1.7790   -1.6178 C   0  0  0  0  0  0
   -0.6317   -0.5971   -1.2775 C   0  0  0  0  0  0
   -1.7585   -0.2023   -2.0418 C   0  0  0  0  0  0
   -2.1355   -0.9648   -3.1644 C   0  0  0  0  0  0
   -1.4257   -2.1292   -3.5109 C   0  0  0  0  0  0
   -2.5107    0.9119   -1.7390 O   0  0  0  0  0  0
   -2.4132    1.4459   -0.4182 C   0  0  0  0  0  0
   -3.0633    2.8376   -0.4855 C   0  0  0  0  0  0
   -3.2096    0.5554    0.5591 C   0  0  0  0  0  0
   -0.9293    1.5793   -0.0248 C   0  0  0  0  0  0
   -0.1783    0.2364   -0.0875 C   0  0  2  0  0  0
    1.2862    0.4518   -0.1328 N   0  3  0  0  0  0
    1.8809    1.0018    1.1037 C   0  0  0  0  0  0
    3.4214    0.9207    1.0692 C   0  0  1  0  0  0
    3.8630    1.7363   -0.0003 O   0  0  0  0  0  0
    4.1213    1.3938    2.3749 C   0  0  2  0  0  0
    5.6712    1.3285    2.3334 C   0  0  0  0  0  0
    6.2917   -0.0620    2.2882 C   0  0  0  0  0  0
    6.9326   -0.5878    3.4307 C   0  0  0  0  0  0
    7.5471   -1.8662    3.3951 C   0  0  0  0  0  0
    7.5075   -2.6034    2.1948 C   0  0  0  0  0  0
    6.8885   -2.0779    1.0462 C   0  0  0  0  0  0
    6.2927   -0.8052    1.0896 C   0  0  0  0  0  0
    8.2038   -2.4559    4.4562 O   0  0  0  0  0  0
    8.2580   -1.7935    5.7163 C   0  0  0  0  0  0
    6.9139   -1.8683    6.4591 C   0  0  0  0  0  0
    6.4501   -3.3075    6.7331 C   0  0  0  0  0  0
    5.0567   -3.4209    7.3829 C   0  0  0  0  0  0
    3.8742   -3.0671    6.4482 C   0  0  0  0  0  0
    3.4859   -1.5725    6.3889 C   0  0  0  0  0  0
    4.0072   -0.7978    7.1907 O   0  0  0  0  0  0
    2.5650   -1.1673    5.4732 N   0  0  0  0  0  0
    2.1066   -2.0853    4.4192 C   0  0  0  0  0  0
    2.0083    0.2092    5.4091 C   0  0  1  0  0  0
    1.6983    0.8632    6.7768 C   0  0  0  0  0  0
    2.6594    1.1610    4.3856 C   0  0  0  0  0  0
    2.2622    2.3248    4.3259 O   0  0  0  0  0  0
    3.5884    0.6736    3.5391 N   0  0  0  0  0  0
   -0.4135   -0.3495    0.8022 H   0  0  0  0  0  0
    3.6939   -0.1125    0.8593 H   0  0  0  0  0  0
    3.8871    2.4546    2.4812 H   0  0  0  0  0  0
    1.0069    0.0767    4.9980 H   0  0  0  0  0  0
   -0.6511   -5.1158   -1.7394 H   0  0  0  0  0  0
    0.8713   -4.5175   -1.0827 H   0  0  0  0  0  0
    0.8744   -5.7879   -2.2993 H   0  0  0  0  0  0
   -0.0584   -4.2500   -3.9803 H   0  0  0  0  0  0
    1.9065   -2.7981   -4.3571 H   0  0  0  0  0  0
    2.4014   -4.4052   -3.8431 H   0  0  0  0  0  0
    2.4512   -3.0664   -2.7027 H   0  0  0  0  0  0
    0.9089   -2.0945   -1.0245 H   0  0  0  0  0  0
   -2.9850   -0.6610   -3.7586 H   0  0  0  0  0  0
   -1.7360   -2.7020   -4.3725 H   0  0  0  0  0  0
   -3.0352    3.3358    0.4841 H   0  0  0  0  0  0
   -4.1078    2.7717   -0.7927 H   0  0  0  0  0  0
   -2.5527    3.4803   -1.2034 H   0  0  0  0  0  0
   -3.1702    0.9529    1.5738 H   0  0  0  0  0  0
   -2.8320   -0.4663    0.5924 H   0  0  0  0  0  0
   -4.2592    0.4989    0.2687 H   0  0  0  0  0  0
   -0.4601    2.2770   -0.7207 H   0  0  0  0  0  0
   -0.8325    2.0251    0.9659 H   0  0  0  0  0  0
    1.7178   -0.4452   -0.3028 H   0  0  0  0  0  0
    1.5530    2.0306    1.2571 H   0  0  0  0  0  0
    1.4947    0.4131    1.9352 H   0  0  0  0  0  0
    3.6917    2.6405    0.2166 H   0  0  0  0  0  0
    6.0477    1.8938    1.4804 H   0  0  0  0  0  0
    6.0620    1.8498    3.2084 H   0  0  0  0  0  0
    6.9531    0.0171    4.3235 H   0  0  0  0  0  0
    7.9706   -3.5784    2.1508 H   0  0  0  0  0  0
    6.8810   -2.6475    0.1287 H   0  0  0  0  0  0
    5.8451   -0.4010    0.1941 H   0  0  0  0  0  0
    9.0240   -2.2886    6.3135 H   0  0  0  0  0  0
    8.5949   -0.7626    5.6028 H   0  0  0  0  0  0
    6.9927   -1.3278    7.4028 H   0  0  0  0  0  0
    6.1617   -1.3478    5.8758 H   0  0  0  0  0  0
    6.4568   -3.8822    5.8064 H   0  0  0  0  0  0
    7.1801   -3.7874    7.3856 H   0  0  0  0  0  0
    4.9266   -4.4581    7.6937 H   0  0  0  0  0  0
    5.0226   -2.8463    8.3094 H   0  0  0  0  0  0
    4.0945   -3.4520    5.4529 H   0  0  0  0  0  0
    2.9914   -3.6042    6.7972 H   0  0  0  0  0  0
    1.6257   -2.9659    4.8471 H   0  0  0  0  0  0
    2.9434   -2.4099    3.7990 H   0  0  0  0  0  0
    1.3849   -1.6275    3.7423 H   0  0  0  0  0  0
    1.0142    1.7045    6.6603 H   0  0  0  0  0  0
    2.5921    1.2548    7.2625 H   0  0  0  0  0  0
    1.2207    0.1566    7.4562 H   0  0  0  0  0  0
    3.8827   -0.2855    3.6579 H   0  0  0  0  0  0
    1.5089    1.0621   -0.9064 H   0  0  0  0  0  0
  1  2  1  0  0  0
  1 47  1  0  0  0
  1 48  1  0  0  0
  1 49  1  0  0  0
  2  3  1  0  0  0
  2  4  1  0  0  0
  2 50  1  0  0  0
  3 51  1  0  0  0
  3 52  1  0  0  0
  3 53  1  0  0  0
  4  9  1  0  0  0
  4  5  2  0  0  0
  5  6  1  0  0  0
  5 54  1  0  0  0
  6 15  1  0  0  0
  6  7  2  0  0  0
  7  8  1  0  0  0
  7 10  1  0  0  0
  8  9  2  0  0  0
  8 55  1  0  0  0
  9 56  1  0  0  0
 10 11  1  0  0  0
 11 12  1  0  0  0
 11 13  1  0  0  0
 11 14  1  0  0  0
 12 57  1  0  0  0
 12 58  1  0  0  0
 12 59  1  0  0  0
 13 60  1  0  0  0
 13 61  1  0  0  0
 13 62  1  0  0  0
 14 15  1  0  0  0
 14 63  1  0  0  0
 14 64  1  0  0  0
 15 43  1  0  0  0
 15 16  1  0  0  0
 16 17  1  0  0  0
 16 65  1  0  0  0
 16 92  1  0  0  0
 17 18  1  0  0  0
 17 66  1  0  0  0
 17 67  1  0  0  0
 18 44  1  0  0  0
 18 19  1  0  0  0
 18 20  1  0  0  0
 19 68  1  0  0  0
 20 45  1  0  0  0
 20 42  1  0  0  0
 20 21  1  0  0  0
 21 22  1  0  0  0
 21 69  1  0  0  0
 21 70  1  0  0  0
 22 27  1  0  0  0
 22 23  2  0  0  0
 23 24  1  0  0  0
 23 71  1  0  0  0
 24 25  2  0  0  0
 24 28  1  0  0  0
 25 26  1  0  0  0
 25 72  1  0  0  0
 26 27  2  0  0  0
 26 73  1  0  0  0
 27 74  1  0  0  0
 28 29  1  0  0  0
 29 30  1  0  0  0
 29 75  1  0  0  0
 29 76  1  0  0  0
 30 31  1  0  0  0
 30 77  1  0  0  0
 30 78  1  0  0  0
 31 32  1  0  0  0
 31 79  1  0  0  0
 31 80  1  0  0  0
 32 33  1  0  0  0
 32 81  1  0  0  0
 32 82  1  0  0  0
 33 34  1  0  0  0
 33 83  1  0  0  0
 33 84  1  0  0  0
 34 35  2  0  0  0
 34 36  1  0  0  0
 36 37  1  0  0  0
 36 38  1  0  0  0
 37 85  1  0  0  0
 37 86  1  0  0  0
 37 87  1  0  0  0
 38 46  1  0  0  0
 38 39  1  0  0  0
 38 40  1  0  0  0
 39 88  1  0  0  0
 39 89  1  0  0  0
 39 90  1  0  0  0
 40 41  2  0  0  0
 40 42  1  0  0  0
 42 91  1  0  0  0
M  CHG  1  16   1
M  END
> <s_m_source_file>
BACE_91.smi

> <i_m_source_file_index>
1

> <i_lp_mmshare_version>
42013

> <i_f3d_flags>
0

> <s_epik_input>
W0NIM11bQ0hdKFtDSDNdKWMoW2NIXTEpW2NIXVtjSF1jKGMxMilPQyhbQ0gzXSkoW0NIM10pW0NIMl1bQ0BASF0yW05IXVtDSDJdW0NAQEhdKFtPSF0pW0NASF0oW0NIMl0zKVtOSF1DKD1PKVtDQEhdKFtDSDNdKU4oW0NIM10pQyg9TylbQ0gyXVtDSDJdW0NIMl1bQ0gyXVtDSDJdT2MoW2NIXWMzNClbY0hdW2NIXVtjSF00

> <s_epik_cmdline>
J2VwaWtfcHl0aG9uJywgJy1waCcsICc3LjAnLCAnLXRuJywgJzgnLCAnLW1hJywgJzIwMCcsICctaW1hZScsICc8aW5maWxlLm1hZT4nLCAnLW9tYWUnLCAnPG91dGZpbGUubWFlPic=

> <r_lp_tautomer_probability>
1

> <r_epik_Ionization_Penalty>
0.0216803

> <r_epik_Ionization_Penalty_Charging>
0.0216796

> <r_epik_Ionization_Penalty_Neutral>
6.98652e-07

> <r_epik_State_Penalty>
0.0174492

> <r_epik_Charging_Adjusted_Penalty>
0.0391288

> <i_epik_Tot_Q>
1

> <i_epik_Tot_abs_Q>
1

> <s_lp_Force_Field>
OPLS_2005

> <r_lp_Energy>
41.6867

> <b_lp_Chiralities_Consistent>
1

> <s_lp_Variant>
BACE_91.smi:1-1

$$$$
BACE_91.smi:1
                    3D
 Structure written by MMmdl.
 91 94  0  0  1  0            999 V2000
    0.0469   -5.2137   -3.0773 C   0  0  0  0  0  0
    0.1793   -3.9531   -3.9464 C   0  0  0  0  0  0
    1.6504   -3.6126   -4.2313 C   0  0  0  0  0  0
   -0.5633   -2.7707   -3.3376 C   0  0  0  0  0  0
   -0.1830   -2.2521   -2.0814 C   0  0  0  0  0  0
   -0.8667   -1.1533   -1.5151 C   0  0  0  0  0  0
   -1.9710   -0.5883   -2.2021 C   0  0  0  0  0  0
   -2.3365   -1.0960   -3.4639 C   0  0  0  0  0  0
   -1.6404   -2.1801   -4.0294 C   0  0  0  0  0  0
   -2.7072    0.4602   -1.6956 O   0  0  0  0  0  0
   -2.6308    0.7121   -0.2929 C   0  0  0  0  0  0
   -3.2483    2.1052   -0.0893 C   0  0  0  0  0  0
   -3.4737   -0.3387    0.4611 C   0  0  0  0  0  0
   -1.1571    0.7222    0.1594 C   0  0  0  0  0  0
   -0.4286   -0.5955   -0.1670 C   0  0  2  0  0  0
    1.0278   -0.4353   -0.0935 N   0  0  0  0  0  0
    1.5569   -0.1293    1.2348 C   0  0  0  0  0  0
    3.0971   -0.1010    1.2309 C   0  0  1  0  0  0
    3.5127    1.1715    0.7788 O   0  0  0  0  0  0
    3.7073   -0.3937    2.6288 C   0  0  2  0  0  0
    3.3195    0.6071    3.7517 C   0  0  0  0  0  0
    4.2393    1.8065    3.9349 C   0  0  0  0  0  0
    5.3546    1.7217    4.7944 C   0  0  0  0  0  0
    6.1984    2.8319    5.0005 C   0  0  0  0  0  0
    5.9120    4.0457    4.3286 C   0  0  0  0  0  0
    4.7964    4.1378    3.4749 C   0  0  0  0  0  0
    3.9582    3.0242    3.2833 C   0  0  0  0  0  0
    7.2593    2.6551    5.8605 O   0  0  0  0  0  0
    8.2256    3.6918    5.9690 C   0  0  0  0  0  0
    9.4082    3.1886    6.8107 C   0  0  0  0  0  0
   10.3635    2.2167    6.0872 C   0  0  0  0  0  0
    9.7354    0.8732    5.6682 C   0  0  0  0  0  0
    9.2559    0.8540    4.1997 C   0  0  0  0  0  0
    8.4009   -0.3739    3.8279 C   0  0  0  0  0  0
    8.1363   -1.1976    4.7039 O   0  0  0  0  0  0
    7.9775   -0.5085    2.5426 N   0  0  0  0  0  0
    8.0988    0.6104    1.5961 C   0  0  0  0  0  0
    7.3024   -1.7233    2.0180 C   0  0  1  0  0  0
    7.9501   -3.0572    2.4580 C   0  0  0  0  0  0
    5.7635   -1.7139    2.1073 C   0  0  0  0  0  0
    5.1349   -2.7162    1.7663 O   0  0  0  0  0  0
    5.1555   -0.5920    2.5320 N   0  0  0  0  0  0
   -0.7344   -1.3436    0.5653 H   0  0  0  0  0  0
    3.4617   -0.8481    0.5241 H   0  0  0  0  0  0
    3.2766   -1.3478    2.9388 H   0  0  0  0  0  0
    7.4878   -1.7156    0.9432 H   0  0  0  0  0  0
   -1.0007   -5.4760   -2.9259 H   0  0  0  0  0  0
    0.5014   -5.0770   -2.0959 H   0  0  0  0  0  0
    0.5346   -6.0669   -3.5492 H   0  0  0  0  0  0
   -0.2875   -4.1778   -4.9065 H   0  0  0  0  0  0
    1.7305   -2.7504   -4.8941 H   0  0  0  0  0  0
    2.1581   -4.4473   -4.7153 H   0  0  0  0  0  0
    2.1960   -3.3813   -3.3161 H   0  0  0  0  0  0
    0.6437   -2.6999   -1.5497 H   0  0  0  0  0  0
   -3.1667   -0.6578   -3.9978 H   0  0  0  0  0  0
   -1.9433   -2.5591   -4.9944 H   0  0  0  0  0  0
   -3.2370    2.3939    0.9623 H   0  0  0  0  0  0
   -4.2842    2.1327   -0.4292 H   0  0  0  0  0  0
   -2.7016    2.8660   -0.6474 H   0  0  0  0  0  0
   -3.4578   -0.1572    1.5361 H   0  0  0  0  0  0
   -3.1147   -1.3543    0.2953 H   0  0  0  0  0  0
   -4.5145   -0.3102    0.1374 H   0  0  0  0  0  0
   -0.6512    1.5389   -0.3589 H   0  0  0  0  0  0
   -1.0876    0.9464    1.2244 H   0  0  0  0  0  0
    1.4867   -1.2559   -0.4756 H   0  0  0  0  0  0
    1.1608    0.8150    1.6085 H   0  0  0  0  0  0
    1.2196   -0.9011    1.9273 H   0  0  0  0  0  0
    4.4561    1.1757    0.7268 H   0  0  0  0  0  0
    2.2939    0.9554    3.6309 H   0  0  0  0  0  0
    3.3192    0.0668    4.6993 H   0  0  0  0  0  0
    5.5685    0.7937    5.3052 H   0  0  0  0  0  0
    6.5271    4.9229    4.4598 H   0  0  0  0  0  0
    4.5785    5.0684    2.9717 H   0  0  0  0  0  0
    3.0971    3.1103    2.6369 H   0  0  0  0  0  0
    8.5819    4.0138    4.9891 H   0  0  0  0  0  0
    7.7692    4.5526    6.4597 H   0  0  0  0  0  0
    9.9926    4.0541    7.1248 H   0  0  0  0  0  0
    9.0366    2.7337    7.7299 H   0  0  0  0  0  0
   10.8212    2.7060    5.2263 H   0  0  0  0  0  0
   11.1863    2.0041    6.7707 H   0  0  0  0  0  0
   10.4809    0.0861    5.7897 H   0  0  0  0  0  0
    8.9269    0.6223    6.3562 H   0  0  0  0  0  0
    8.6820    1.7535    3.9906 H   0  0  0  0  0  0
   10.1281    0.8871    3.5460 H   0  0  0  0  0  0
    7.6363    1.5140    1.9958 H   0  0  0  0  0  0
    7.6028    0.4137    0.6453 H   0  0  0  0  0  0
    9.1454    0.8220    1.3746 H   0  0  0  0  0  0
    7.6233   -3.8773    1.8178 H   0  0  0  0  0  0
    7.6855   -3.3330    3.4786 H   0  0  0  0  0  0
    9.0373   -3.0114    2.3882 H   0  0  0  0  0  0
    5.7376    0.1893    2.7979 H   0  0  0  0  0  0
  1  2  1  0  0  0
  1 47  1  0  0  0
  1 48  1  0  0  0
  1 49  1  0  0  0
  2  3  1  0  0  0
  2  4  1  0  0  0
  2 50  1  0  0  0
  3 51  1  0  0  0
  3 52  1  0  0  0
  3 53  1  0  0  0
  4  9  1  0  0  0
  4  5  2  0  0  0
  5  6  1  0  0  0
  5 54  1  0  0  0
  6 15  1  0  0  0
  6  7  2  0  0  0
  7  8  1  0  0  0
  7 10  1  0  0  0
  8  9  2  0  0  0
  8 55  1  0  0  0
  9 56  1  0  0  0
 10 11  1  0  0  0
 11 12  1  0  0  0
 11 13  1  0  0  0
 11 14  1  0  0  0
 12 57  1  0  0  0
 12 58  1  0  0  0
 12 59  1  0  0  0
 13 60  1  0  0  0
 13 61  1  0  0  0
 13 62  1  0  0  0
 14 15  1  0  0  0
 14 63  1  0  0  0
 14 64  1  0  0  0
 15 43  1  0  0  0
 15 16  1  0  0  0
 16 17  1  0  0  0
 16 65  1  0  0  0
 17 18  1  0  0  0
 17 66  1  0  0  0
 17 67  1  0  0  0
 18 44  1  0  0  0
 18 19  1  0  0  0
 18 20  1  0  0  0
 19 68  1  0  0  0
 20 45  1  0  0  0
 20 42  1  0  0  0
 20 21  1  0  0  0
 21 22  1  0  0  0
 21 69  1  0  0  0
 21 70  1  0  0  0
 22 27  1  0  0  0
 22 23  2  0  0  0
 23 24  1  0  0  0
 23 71  1  0  0  0
 24 25  2  0  0  0
 24 28  1  0  0  0
 25 26  1  0  0  0
 25 72  1  0  0  0
 26 27  2  0  0  0
 26 73  1  0  0  0
 27 74  1  0  0  0
 28 29  1  0  0  0
 29 30  1  0  0  0
 29 75  1  0  0  0
 29 76  1  0  0  0
 30 31  1  0  0  0
 30 77  1  0  0  0
 30 78  1  0  0  0
 31 32  1  0  0  0
 31 79  1  0  0  0
 31 80  1  0  0  0
 32 33  1  0  0  0
 32 81  1  0  0  0
 32 82  1  0  0  0
 33 34  1  0  0  0
 33 83  1  0  0  0
 33 84  1  0  0  0
 34 35  2  0  0  0
 34 36  1  0  0  0
 36 37  1  0  0  0
 36 38  1  0  0  0
 37 85  1  0  0  0
 37 86  1  0  0  0
 37 87  1  0  0  0
 38 46  1  0  0  0
 38 39  1  0  0  0
 38 40  1  0  0  0
 39 88  1  0  0  0
 39 89  1  0  0  0
 39 90  1  0  0  0
 40 41  2  0  0  0
 40 42  1  0  0  0
 42 91  1  0  0  0
M  END
> <s_m_source_file>
BACE_91.smi

> <i_m_source_file_index>
1

> <i_lp_mmshare_version>
42013

> <i_f3d_flags>
0

> <s_epik_input>
W0NIM11bQ0hdKFtDSDNdKWMoW2NIXTEpW2NIXVtjSF1jKGMxMilPQyhbQ0gzXSkoW0NIM10pW0NIMl1bQ0BASF0yW05IXVtDSDJdW0NAQEhdKFtPSF0pW0NASF0oW0NIMl0zKVtOSF1DKD1PKVtDQEhdKFtDSDNdKU4oW0NIM10pQyg9TylbQ0gyXVtDSDJdW0NIMl1bQ0gyXVtDSDJdT2MoW2NIXWMzNClbY0hdW2NIXVtjSF00

> <s_epik_cmdline>
J2VwaWtfcHl0aG9uJywgJy1waCcsICc3LjAnLCAnLXRuJywgJzgnLCAnLW1hJywgJzIwMCcsICctaW1hZScsICc8aW5maWxlLm1hZT4nLCAnLW9tYWUnLCAnPG91dGZpbGUubWFlPic=

> <r_lp_tautomer_probability>
1

> <r_epik_Ionization_Penalty>
1.97072

> <r_epik_Ionization_Penalty_Charging>
0

> <r_epik_Ionization_Penalty_Neutral>
1.97072

> <r_epik_State_Penalty>
2.09724

> <r_epik_Charging_Adjusted_Penalty>
2.09724

> <i_epik_Tot_Q>
0

> <i_epik_Tot_abs_Q>
0

> <s_lp_Force_Field>
OPLS_2005

> <r_lp_Energy>
50.6926

> <b_lp_Chiralities_Consistent>
1

> <s_lp_Variant>
BACE_91.smi:1-2

$$$$
