BACE_40.smi:1
                    3D
 Structure written by MMmdl.
 89 92  0  0  1  0            999 V2000
    3.6316    6.7611    6.2675 C   0  0  0  0  0  0
    2.6589    6.7808    5.0778 C   0  0  0  0  0  0
    2.6189    5.4916    4.3740 N   0  0  0  0  0  0
    3.5132    5.4141    3.2049 C   0  0  0  0  0  0
    2.8497    5.8847    1.8940 C   0  0  0  0  0  0
    3.7766    5.6899    0.6815 C   0  0  0  0  0  0
    3.0852    5.8376   -0.6920 C   0  0  0  0  0  0
    2.1437    4.6809   -1.1065 C   0  0  0  0  0  0
    2.8153    3.4796   -1.8219 C   0  0  1  0  0  0
    3.8612    2.7375   -0.9699 C   0  0  0  0  0  0
    1.8060    2.4998   -2.4839 C   0  0  0  0  0  0
    0.5792    2.0050   -1.6672 C   0  0  2  0  0  0
    0.9611    1.6587   -0.2948 N   0  0  0  0  0  0
    0.2774    2.0416    0.7980 C   0  0  0  0  0  0
   -0.8590    2.5132    0.7678 O   0  0  0  0  0  0
    1.0442    2.0002    2.0807 C   0  0  0  0  0  0
    1.0532    3.1451    2.8999 C   0  0  0  0  0  0
    1.8348    3.1861    4.0692 C   0  0  0  0  0  0
    2.5287    2.0294    4.4800 C   0  0  0  0  0  0
    2.4747    0.8518    3.7007 C   0  0  0  0  0  0
    1.7533    0.8486    2.4852 C   0  0  0  0  0  0
    3.1763   -0.3491    4.1375 C   0  0  0  0  0  0
    2.9718   -1.6105    3.7589 N   0  0  0  0  0  0
    3.9048   -2.3578    4.4618 C   0  0  0  0  0  0
    4.6341   -1.5001    5.2416 C   0  0  0  0  0  0
    4.1810   -0.2236    5.0483 O   0  0  0  0  0  0
    1.9080    4.4471    4.8782 C   0  0  0  0  0  0
    1.3089    4.4920    5.9529 O   0  0  0  0  0  0
   -0.1487    0.8375   -2.3964 C   0  0  2  0  0  0
   -0.7418    1.3649   -3.5666 O   0  0  0  0  0  0
   -1.2836    0.1321   -1.6112 C   0  0  0  0  0  0
   -0.7716   -0.8285   -0.6101 N   0  3  0  0  0  0
   -0.2990   -2.1147   -1.1608 C   0  0  0  0  0  0
    0.8592   -2.6453   -0.3425 C   0  0  0  0  0  0
    2.1479   -2.1041   -0.5301 C   0  0  0  0  0  0
    3.2487   -2.6016    0.2009 C   0  0  0  0  0  0
    3.0447   -3.6436    1.1304 C   0  0  0  0  0  0
    1.7559   -4.1742    1.3330 C   0  0  0  0  0  0
    0.6630   -3.6770    0.5977 C   0  0  0  0  0  0
    4.6422   -2.0192   -0.0013 C   0  0  0  0  0  0
    4.7449   -0.6069    0.5911 C   0  0  0  0  0  0
    5.0747   -2.0457   -1.4767 C   0  0  0  0  0  0
    3.3793    3.8976   -2.6571 H   0  0  0  0  0  0
   -0.1139    2.8475   -1.6165 H   0  0  0  0  0  0
    0.5863    0.1010   -2.7203 H   0  0  0  0  0  0
    3.6614    7.7346    6.7569 H   0  0  0  0  0  0
    4.6449    6.5221    5.9439 H   0  0  0  0  0  0
    3.3376    6.0260    7.0170 H   0  0  0  0  0  0
    1.6585    7.0489    5.4220 H   0  0  0  0  0  0
    2.9475    7.5750    4.3879 H   0  0  0  0  0  0
    4.4008    6.0203    3.3921 H   0  0  0  0  0  0
    3.8985    4.4010    3.0850 H   0  0  0  0  0  0
    1.9227    5.3479    1.7286 H   0  0  0  0  0  0
    2.5692    6.9354    1.9732 H   0  0  0  0  0  0
    4.5820    6.4221    0.7483 H   0  0  0  0  0  0
    4.2634    4.7219    0.7584 H   0  0  0  0  0  0
    2.5148    6.7672   -0.6822 H   0  0  0  0  0  0
    3.8429    5.9724   -1.4647 H   0  0  0  0  0  0
    1.5686    4.3471   -0.2467 H   0  0  0  0  0  0
    1.4079    5.0961   -1.7963 H   0  0  0  0  0  0
    3.4852    2.4897    0.0223 H   0  0  0  0  0  0
    4.7621    3.3375   -0.8486 H   0  0  0  0  0  0
    4.1800    1.8131   -1.4514 H   0  0  0  0  0  0
    1.4237    2.9844   -3.3832 H   0  0  0  0  0  0
    2.3603    1.6363   -2.8534 H   0  0  0  0  0  0
    1.8958    1.2998   -0.1616 H   0  0  0  0  0  0
    0.4814    4.0150    2.6103 H   0  0  0  0  0  0
    3.1015    2.0500    5.3962 H   0  0  0  0  0  0
    1.7347   -0.0409    1.8714 H   0  0  0  0  0  0
    3.9757   -3.4300    4.3523 H   0  0  0  0  0  0
    5.4488   -1.6275    5.9390 H   0  0  0  0  0  0
   -1.1076    0.6547   -4.0718 H   0  0  0  0  0  0
   -1.9074    0.8730   -1.1109 H   0  0  0  0  0  0
   -1.9453   -0.4121   -2.2872 H   0  0  0  0  0  0
   -0.0035   -0.3842   -0.1276 H   0  0  0  0  0  0
   -1.1248   -2.8270   -1.1750 H   0  0  0  0  0  0
    0.0353   -2.0073   -2.1929 H   0  0  0  0  0  0
    2.2897   -1.3036   -1.2416 H   0  0  0  0  0  0
    3.8742   -4.0345    1.7015 H   0  0  0  0  0  0
    1.6072   -4.9656    2.0527 H   0  0  0  0  0  0
   -0.3208   -4.0951    0.7538 H   0  0  0  0  0  0
    5.3460   -2.6494    0.5445 H   0  0  0  0  0  0
    4.5652   -0.6203    1.6647 H   0  0  0  0  0  0
    4.0148    0.0653    0.1424 H   0  0  0  0  0  0
    5.7361   -0.1814    0.4325 H   0  0  0  0  0  0
    5.0310   -3.0582   -1.8795 H   0  0  0  0  0  0
    6.1009   -1.6937   -1.5872 H   0  0  0  0  0  0
    4.4444   -1.4098   -2.0986 H   0  0  0  0  0  0
   -1.4989   -1.0235    0.0630 H   0  0  0  0  0  0
  1  2  1  0  0  0
  1 46  1  0  0  0
  1 47  1  0  0  0
  1 48  1  0  0  0
  2  3  1  0  0  0
  2 49  1  0  0  0
  2 50  1  0  0  0
  3 27  1  0  0  0
  3  4  1  0  0  0
  4  5  1  0  0  0
  4 51  1  0  0  0
  4 52  1  0  0  0
  5  6  1  0  0  0
  5 53  1  0  0  0
  5 54  1  0  0  0
  6  7  1  0  0  0
  6 55  1  0  0  0
  6 56  1  0  0  0
  7  8  1  0  0  0
  7 57  1  0  0  0
  7 58  1  0  0  0
  8  9  1  0  0  0
  8 59  1  0  0  0
  8 60  1  0  0  0
  9 43  1  0  0  0
  9 10  1  0  0  0
  9 11  1  0  0  0
 10 61  1  0  0  0
 10 62  1  0  0  0
 10 63  1  0  0  0
 11 12  1  0  0  0
 11 64  1  0  0  0
 11 65  1  0  0  0
 12 44  1  0  0  0
 12 13  1  0  0  0
 12 29  1  0  0  0
 13 14  1  0  0  0
 13 66  1  0  0  0
 14 15  2  0  0  0
 14 16  1  0  0  0
 16 21  1  0  0  0
 16 17  2  0  0  0
 17 18  1  0  0  0
 17 67  1  0  0  0
 18 19  2  0  0  0
 18 27  1  0  0  0
 19 20  1  0  0  0
 19 68  1  0  0  0
 20 21  2  0  0  0
 20 22  1  0  0  0
 21 69  1  0  0  0
 22 26  1  0  0  0
 22 23  2  0  0  0
 23 24  1  0  0  0
 24 25  2  0  0  0
 24 70  1  0  0  0
 25 26  1  0  0  0
 25 71  1  0  0  0
 27 28  2  0  0  0
 29 45  1  0  0  0
 29 30  1  0  0  0
 29 31  1  0  0  0
 30 72  1  0  0  0
 31 32  1  0  0  0
 31 73  1  0  0  0
 31 74  1  0  0  0
 32 33  1  0  0  0
 32 75  1  0  0  0
 32 89  1  0  0  0
 33 34  1  0  0  0
 33 76  1  0  0  0
 33 77  1  0  0  0
 34 39  1  0  0  0
 34 35  2  0  0  0
 35 36  1  0  0  0
 35 78  1  0  0  0
 36 37  2  0  0  0
 36 40  1  0  0  0
 37 38  1  0  0  0
 37 79  1  0  0  0
 38 39  2  0  0  0
 38 80  1  0  0  0
 39 81  1  0  0  0
 40 41  1  0  0  0
 40 42  1  0  0  0
 40 82  1  0  0  0
 41 83  1  0  0  0
 41 84  1  0  0  0
 41 85  1  0  0  0
 42 86  1  0  0  0
 42 87  1  0  0  0
 42 88  1  0  0  0
M  CHG  1  32   1
M  END
> <s_m_source_file>
BACE_40.smi

> <i_m_source_file_index>
1

> <i_lp_mmshare_version>
42013

> <i_f3d_flags>
0

> <s_epik_input>
bzFbY0hdW2NIXW5jMS1jKFtjSF0yKVtjSF1jKFtjSF1jMjMpQyg9TylOKFtDSDJdW0NIM10pW0NIMl1bQ0gyXVtDSDJdW0NIMl1bQ0gyXVtDQEBIXShbQ0gzXSlbQ0gyXVtDQEhdKFtOSF1DMz1PKVtDQEhdKFtPSF0pW0NIMl1bTkhdW0NIMl1jNFtjSF1jKFtDSF0oW0NIM10pW0NIM10pW2NIXVtjSF1bY0hdNA==

> <s_epik_cmdline>
J2VwaWtfcHl0aG9uJywgJy1waCcsICc3LjAnLCAnLXRuJywgJzgnLCAnLW1hJywgJzIwMCcsICctaW1hZScsICc8aW5maWxlLm1hZT4nLCAnLW9tYWUnLCAnPG91dGZpbGUubWFlPic=

> <r_epik_Ionization_Penalty>
0.0165162

> <r_epik_Ionization_Penalty_Charging>
0.0165153

> <r_epik_Ionization_Penalty_Neutral>
8.88735e-07

> <r_epik_State_Penalty>
0.0130399

> <r_epik_Charging_Adjusted_Penalty>
0.0295552

> <i_epik_Tot_Q>
1

> <i_epik_Tot_abs_Q>
1

> <s_lp_Force_Field>
OPLS_2005

> <r_lp_Energy>
47.8025

> <b_lp_Chiralities_Consistent>
1

> <s_lp_Variant>
BACE_40.smi:1-1

$$$$
BACE_40.smi:1
                    3D
 Structure written by MMmdl.
 88 91  0  0  1  0            999 V2000
    3.7533    8.1213    5.5722 C   0  0  0  0  0  0
    3.0613    7.9287    4.2142 C   0  0  0  0  0  0
    2.7564    6.5163    3.9507 N   0  0  0  0  0  0
    3.7528    5.8224    3.1154 C   0  0  0  0  0  0
    3.3912    5.8273    1.6161 C   0  0  0  0  0  0
    4.3652    4.9709    0.7879 C   0  0  0  0  0  0
    3.9574    4.7742   -0.6889 C   0  0  0  0  0  0
    2.7454    3.8470   -0.9429 C   0  0  0  0  0  0
    3.0595    2.3347   -1.0768 C   0  0  1  0  0  0
    3.6809    1.7054    0.1858 C   0  0  0  0  0  0
    1.8639    1.4997   -1.6143 C   0  0  0  0  0  0
    0.4581    1.7206   -1.0001 C   0  0  2  0  0  0
    0.5468    1.7409    0.4578 N   0  0  0  0  0  0
   -0.1406    2.5821    1.2454 C   0  0  0  0  0  0
   -1.1293    3.2192    0.8822 O   0  0  0  0  0  0
    0.5100    2.8556    2.5652 C   0  0  0  0  0  0
    0.6564    4.1903    2.9898 C   0  0  0  0  0  0
    1.3950    4.4936    4.1485 C   0  0  0  0  0  0
    1.9098    3.4487    4.9433 C   0  0  0  0  0  0
    1.7248    2.1021    4.5567 C   0  0  0  0  0  0
    1.0325    1.8114    3.3595 C   0  0  0  0  0  0
    2.2699    1.0174    5.3679 C   0  0  0  0  0  0
    2.1852   -0.2974    5.1610 N   0  0  0  0  0  0
    2.8710   -0.8789    6.2170 C   0  0  0  0  0  0
    3.3441    0.1251    7.0194 C   0  0  0  0  0  0
    2.9709    1.3316    6.4934 O   0  0  0  0  0  0
    1.6638    5.9245    4.5028 C   0  0  0  0  0  0
    0.8826    6.5057    5.2561 O   0  0  0  0  0  0
   -0.5777    0.6822   -1.5303 C   0  0  2  0  0  0
   -1.7915    1.3630   -1.7736 O   0  0  0  0  0  0
   -0.8919   -0.5358   -0.6263 C   0  0  0  0  0  0
    0.2086   -1.4981   -0.5387 N   0  0  0  0  0  0
    0.4317   -2.2974   -1.7457 C   0  0  0  0  0  0
    1.7962   -2.0454   -2.3553 C   0  0  0  0  0  0
    1.9067   -1.4021   -3.6057 C   0  0  0  0  0  0
    3.1759   -1.1027   -4.1464 C   0  0  0  0  0  0
    4.3371   -1.4727   -3.4331 C   0  0  0  0  0  0
    4.2302   -2.1318   -2.1939 C   0  0  0  0  0  0
    2.9620   -2.4167   -1.6544 C   0  0  0  0  0  0
    3.2827   -0.3696   -5.4771 C   0  0  0  0  0  0
    4.0396   -1.1975   -6.5274 C   0  0  0  0  0  0
    3.9005    1.0263   -5.3013 C   0  0  0  0  0  0
    3.8276    2.2432   -1.8462 H   0  0  0  0  0  0
    0.1571    2.7140   -1.3406 H   0  0  0  0  0  0
   -0.2620    0.3318   -2.5130 H   0  0  0  0  0  0
    3.9898    9.1722    5.7388 H   0  0  0  0  0  0
    4.6868    7.5600    5.6214 H   0  0  0  0  0  0
    3.1201    7.7916    6.3963 H   0  0  0  0  0  0
    2.1471    8.5238    4.1772 H   0  0  0  0  0  0
    3.6954    8.3302    3.4226 H   0  0  0  0  0  0
    4.7307    6.2875    3.2486 H   0  0  0  0  0  0
    3.8926    4.7985    3.4634 H   0  0  0  0  0  0
    2.3783    5.4628    1.4764 H   0  0  0  0  0  0
    3.3920    6.8507    1.2395 H   0  0  0  0  0  0
    5.3456    5.4475    0.8158 H   0  0  0  0  0  0
    4.4989    4.0095    1.2769 H   0  0  0  0  0  0
    3.7389    5.7565   -1.1091 H   0  0  0  0  0  0
    4.8127    4.4028   -1.2542 H   0  0  0  0  0  0
    1.9832    4.0167   -0.1858 H   0  0  0  0  0  0
    2.2896    4.1638   -1.8817 H   0  0  0  0  0  0
    3.1272    1.9594    1.0889 H   0  0  0  0  0  0
    4.7093    2.0383    0.3201 H   0  0  0  0  0  0
    3.7202    0.6182    0.1141 H   0  0  0  0  0  0
    1.7831    1.6758   -2.6874 H   0  0  0  0  0  0
    2.1270    0.4505   -1.5181 H   0  0  0  0  0  0
    1.3411    1.2687    0.8643 H   0  0  0  0  0  0
    0.2642    4.9944    2.3828 H   0  0  0  0  0  0
    2.4664    3.6889    5.8378 H   0  0  0  0  0  0
    0.9151    0.7856    3.0404 H   0  0  0  0  0  0
    2.9684   -1.9501    6.3129 H   0  0  0  0  0  0
    3.9205    0.1487    7.9326 H   0  0  0  0  0  0
   -2.4074    0.7543   -2.1517 H   0  0  0  0  0  0
   -1.1625   -0.1973    0.3737 H   0  0  0  0  0  0
   -1.7791   -1.0480   -1.0012 H   0  0  0  0  0  0
    1.0643   -1.0029   -0.3090 H   0  0  0  0  0  0
    0.3707   -3.3562   -1.4935 H   0  0  0  0  0  0
   -0.3469   -2.1214   -2.4892 H   0  0  0  0  0  0
    1.0122   -1.1121   -4.1377 H   0  0  0  0  0  0
    5.3158   -1.2486   -3.8311 H   0  0  0  0  0  0
    5.1221   -2.4112   -1.6527 H   0  0  0  0  0  0
    2.8852   -2.9083   -0.6956 H   0  0  0  0  0  0
    2.2704   -0.2247   -5.8566 H   0  0  0  0  0  0
    3.5651   -2.1676   -6.6769 H   0  0  0  0  0  0
    5.0749   -1.3741   -6.2350 H   0  0  0  0  0  0
    4.0534   -0.6870   -7.4906 H   0  0  0  0  0  0
    3.3186    1.6278   -4.6029 H   0  0  0  0  0  0
    3.9310    1.5633   -6.2496 H   0  0  0  0  0  0
    4.9208    0.9700   -4.9213 H   0  0  0  0  0  0
  1  2  1  0  0  0
  1 46  1  0  0  0
  1 47  1  0  0  0
  1 48  1  0  0  0
  2  3  1  0  0  0
  2 49  1  0  0  0
  2 50  1  0  0  0
  3 27  1  0  0  0
  3  4  1  0  0  0
  4  5  1  0  0  0
  4 51  1  0  0  0
  4 52  1  0  0  0
  5  6  1  0  0  0
  5 53  1  0  0  0
  5 54  1  0  0  0
  6  7  1  0  0  0
  6 55  1  0  0  0
  6 56  1  0  0  0
  7  8  1  0  0  0
  7 57  1  0  0  0
  7 58  1  0  0  0
  8  9  1  0  0  0
  8 59  1  0  0  0
  8 60  1  0  0  0
  9 43  1  0  0  0
  9 10  1  0  0  0
  9 11  1  0  0  0
 10 61  1  0  0  0
 10 62  1  0  0  0
 10 63  1  0  0  0
 11 12  1  0  0  0
 11 64  1  0  0  0
 11 65  1  0  0  0
 12 44  1  0  0  0
 12 13  1  0  0  0
 12 29  1  0  0  0
 13 14  1  0  0  0
 13 66  1  0  0  0
 14 15  2  0  0  0
 14 16  1  0  0  0
 16 21  1  0  0  0
 16 17  2  0  0  0
 17 18  1  0  0  0
 17 67  1  0  0  0
 18 19  2  0  0  0
 18 27  1  0  0  0
 19 20  1  0  0  0
 19 68  1  0  0  0
 20 21  2  0  0  0
 20 22  1  0  0  0
 21 69  1  0  0  0
 22 26  1  0  0  0
 22 23  2  0  0  0
 23 24  1  0  0  0
 24 25  2  0  0  0
 24 70  1  0  0  0
 25 26  1  0  0  0
 25 71  1  0  0  0
 27 28  2  0  0  0
 29 45  1  0  0  0
 29 30  1  0  0  0
 29 31  1  0  0  0
 30 72  1  0  0  0
 31 32  1  0  0  0
 31 73  1  0  0  0
 31 74  1  0  0  0
 32 33  1  0  0  0
 32 75  1  0  0  0
 33 34  1  0  0  0
 33 76  1  0  0  0
 33 77  1  0  0  0
 34 39  1  0  0  0
 34 35  2  0  0  0
 35 36  1  0  0  0
 35 78  1  0  0  0
 36 37  2  0  0  0
 36 40  1  0  0  0
 37 38  1  0  0  0
 37 79  1  0  0  0
 38 39  2  0  0  0
 38 80  1  0  0  0
 39 81  1  0  0  0
 40 41  1  0  0  0
 40 42  1  0  0  0
 40 82  1  0  0  0
 41 83  1  0  0  0
 41 84  1  0  0  0
 41 85  1  0  0  0
 42 86  1  0  0  0
 42 87  1  0  0  0
 42 88  1  0  0  0
M  END
> <s_m_source_file>
BACE_40.smi

> <i_m_source_file_index>
1

> <i_lp_mmshare_version>
42013

> <i_f3d_flags>
0

> <s_epik_input>
bzFbY0hdW2NIXW5jMS1jKFtjSF0yKVtjSF1jKFtjSF1jMjMpQyg9TylOKFtDSDJdW0NIM10pW0NIMl1bQ0gyXVtDSDJdW0NIMl1bQ0gyXVtDQEBIXShbQ0gzXSlbQ0gyXVtDQEhdKFtOSF1DMz1PKVtDQEhdKFtPSF0pW0NIMl1bTkhdW0NIMl1jNFtjSF1jKFtDSF0oW0NIM10pW0NIM10pW2NIXVtjSF1bY0hdNA==

> <s_epik_cmdline>
J2VwaWtfcHl0aG9uJywgJy1waCcsICc3LjAnLCAnLXRuJywgJzgnLCAnLW1hJywgJzIwMCcsICctaW1hZScsICc8aW5maWxlLm1hZT4nLCAnLW9tYWUnLCAnPG91dGZpbGUubWFlPic=

> <r_epik_Ionization_Penalty>
2.12936

> <r_epik_Ionization_Penalty_Charging>
0

> <r_epik_Ionization_Penalty_Neutral>
2.12936

> <r_epik_State_Penalty>
2.26762

> <r_epik_Charging_Adjusted_Penalty>
2.26762

> <i_epik_Tot_Q>
0

> <i_epik_Tot_abs_Q>
0

> <s_lp_Force_Field>
OPLS_2005

> <r_lp_Energy>
58.3973

> <b_lp_Chiralities_Consistent>
1

> <s_lp_Variant>
BACE_40.smi:1-2

$$$$
