BACE_60.smi:1
                    3D
 Structure written by MMmdl.
 96 99  0  0  1  0            999 V2000
    5.1928    0.2532   -2.4729 C   0  0  0  0  0  0
    3.7883    0.4379   -2.4881 O   0  0  0  0  0  0
    3.3348    1.0915   -3.6654 C   0  0  0  0  0  0
    1.8410    1.3516   -3.6262 C   0  0  0  0  0  0
    1.0655    1.2710   -4.8023 C   0  0  0  0  0  0
   -0.3195    1.5413   -4.7709 C   0  0  0  0  0  0
   -0.9246    1.8785   -3.5384 C   0  0  0  0  0  0
   -0.1662    1.9125   -2.3519 C   0  0  0  0  0  0
    1.2236    1.6956   -2.4086 C   0  0  0  0  0  0
   -0.8502    2.1815   -1.0484 C   0  0  0  0  0  0
   -1.3205    3.2950   -0.8294 O   0  0  0  0  0  0
   -0.9666    1.1804   -0.1512 N   0  0  0  0  0  0
   -0.5361   -0.2293   -0.1767 C   0  0  1  0  0  0
   -0.9796   -1.0301   -1.4310 C   0  0  0  0  0  0
   -2.4703   -0.9487   -1.8377 C   0  0  2  0  0  0
   -3.3741   -1.6431   -0.8027 C   0  0  0  0  0  0
   -2.6362   -1.5415   -3.2552 C   0  0  0  0  0  0
   -4.0544   -1.4520   -3.8496 C   0  0  0  0  0  0
   -4.1327   -1.8930   -5.3249 C   0  0  0  0  0  0
   -3.3767   -1.0251   -6.3579 C   0  0  0  0  0  0
   -4.0022    0.3541   -6.6523 C   0  0  0  0  0  0
   -3.5561    1.5083   -5.7328 C   0  0  0  0  0  0
   -2.2602    2.2305   -6.1556 C   0  0  0  0  0  0
   -1.0460    1.4451   -5.9677 N   0  0  0  0  0  0
    0.9760   -0.4364    0.1263 C   0  0  2  0  0  0
    1.1315   -1.7094    0.7240 O   0  0  0  0  0  0
    1.6087    0.5966    1.0803 C   0  0  0  0  0  0
    3.0720    0.4015    1.1855 N   0  3  0  0  0  0
    3.8450    1.5626    1.6882 C   0  0  0  0  0  0
    4.1497    2.5725    0.5677 C   0  0  0  0  0  0
    5.5648    2.5194    0.8486 O   0  0  0  0  0  0
    5.3558    1.2983    1.5908 C   0  0  0  0  0  0
    3.2984    2.0751    3.0215 C   0  0  0  0  0  0
    2.3367    3.1103    3.0492 C   0  0  0  0  0  0
    1.7908    3.5775    4.2697 C   0  0  0  0  0  0
    2.2416    2.9851    5.4727 C   0  0  0  0  0  0
    3.1934    1.9491    5.4563 C   0  0  0  0  0  0
    3.7158    1.4898    4.2348 C   0  0  0  0  0  0
    0.7300    4.6942    4.3214 C   0  0  0  0  0  0
   -0.5437    4.1682    5.0158 C   0  0  0  0  0  0
    0.3177    5.2047    2.9211 C   0  0  0  0  0  0
    1.2851    5.8948    5.1149 C   0  0  0  0  0  0
   -1.0770   -0.6467    0.6732 H   0  0  0  0  0  0
   -2.7662    0.0988   -1.8920 H   0  0  0  0  0  0
    1.5376   -0.4450   -0.8073 H   0  0  0  0  0  0
    5.4837   -0.2651   -1.5592 H   0  0  0  0  0  0
    5.7155    1.2104   -2.4969 H   0  0  0  0  0  0
    5.5212   -0.3485   -3.3214 H   0  0  0  0  0  0
    3.8439    2.0496   -3.7804 H   0  0  0  0  0  0
    3.5784    0.4845   -4.5389 H   0  0  0  0  0  0
    1.5396    1.0094   -5.7375 H   0  0  0  0  0  0
   -1.9819    2.0802   -3.4752 H   0  0  0  0  0  0
    1.8195    1.7750   -1.5139 H   0  0  0  0  0  0
   -1.4576    1.4376    0.6932 H   0  0  0  0  0  0
   -0.3623   -0.7279   -2.2757 H   0  0  0  0  0  0
   -0.7284   -2.0806   -1.2793 H   0  0  0  0  0  0
   -3.1493   -2.7075   -0.7296 H   0  0  0  0  0  0
   -4.4283   -1.5412   -1.0586 H   0  0  0  0  0  0
   -3.2528   -1.2078    0.1887 H   0  0  0  0  0  0
   -1.9498   -1.0140   -3.9160 H   0  0  0  0  0  0
   -2.3129   -2.5832   -3.2590 H   0  0  0  0  0  0
   -4.7132   -2.1042   -3.2766 H   0  0  0  0  0  0
   -4.4683   -0.4536   -3.7260 H   0  0  0  0  0  0
   -3.7535   -2.9135   -5.3931 H   0  0  0  0  0  0
   -5.1812   -1.9557   -5.6180 H   0  0  0  0  0  0
   -2.3218   -0.9348   -6.1066 H   0  0  0  0  0  0
   -3.3889   -1.5829   -7.2950 H   0  0  0  0  0  0
   -3.7851    0.6324   -7.6841 H   0  0  0  0  0  0
   -5.0879    0.2601   -6.6057 H   0  0  0  0  0  0
   -4.3494    2.2562   -5.7495 H   0  0  0  0  0  0
   -3.4972    1.1824   -4.6999 H   0  0  0  0  0  0
   -2.3235    2.5117   -7.2070 H   0  0  0  0  0  0
   -2.1675    3.1675   -5.6050 H   0  0  0  0  0  0
   -0.5247    1.2206   -6.8032 H   0  0  0  0  0  0
    0.7707   -2.3618    0.1419 H   0  0  0  0  0  0
    1.4395    1.6047    0.7056 H   0  0  0  0  0  0
    1.1496    0.5449    2.0686 H   0  0  0  0  0  0
    3.2381   -0.3903    1.7902 H   0  0  0  0  0  0
    3.9365    2.2091   -0.4386 H   0  0  0  0  0  0
    3.7358    3.5703    0.7094 H   0  0  0  0  0  0
    5.8884    1.2940    2.5418 H   0  0  0  0  0  0
    5.6246    0.4242    0.9943 H   0  0  0  0  0  0
    2.0118    3.5262    2.1097 H   0  0  0  0  0  0
    1.8543    3.3169    6.4246 H   0  0  0  0  0  0
    3.5189    1.5024    6.3844 H   0  0  0  0  0  0
    4.4342    0.6834    4.2381 H   0  0  0  0  0  0
   -1.3222    4.9315    5.0461 H   0  0  0  0  0  0
   -0.3565    3.8651    6.0461 H   0  0  0  0  0  0
   -0.9522    3.3049    4.4890 H   0  0  0  0  0  0
   -0.1105    4.4087    2.3097 H   0  0  0  0  0  0
    1.1640    5.6303    2.3802 H   0  0  0  0  0  0
   -0.4367    5.9892    2.9933 H   0  0  0  0  0  0
    0.5634    6.7115    5.1563 H   0  0  0  0  0  0
    2.1946    6.2845    4.6556 H   0  0  0  0  0  0
    1.5260    5.6296    6.1446 H   0  0  0  0  0  0
    3.4251    0.1782    0.2659 H   0  0  0  0  0  0
  1  2  1  0  0  0
  1 46  1  0  0  0
  1 47  1  0  0  0
  1 48  1  0  0  0
  2  3  1  0  0  0
  3  4  1  0  0  0
  3 49  1  0  0  0
  3 50  1  0  0  0
  4  9  1  0  0  0
  4  5  2  0  0  0
  5  6  1  0  0  0
  5 51  1  0  0  0
  6 24  1  0  0  0
  6  7  2  0  0  0
  7  8  1  0  0  0
  7 52  1  0  0  0
  8  9  2  0  0  0
  8 10  1  0  0  0
  9 53  1  0  0  0
 10 11  2  0  0  0
 10 12  1  0  0  0
 12 13  1  0  0  0
 12 54  1  0  0  0
 13 43  1  0  0  0
 13 14  1  0  0  0
 13 25  1  0  0  0
 14 15  1  0  0  0
 14 55  1  0  0  0
 14 56  1  0  0  0
 15 44  1  0  0  0
 15 16  1  0  0  0
 15 17  1  0  0  0
 16 57  1  0  0  0
 16 58  1  0  0  0
 16 59  1  0  0  0
 17 18  1  0  0  0
 17 60  1  0  0  0
 17 61  1  0  0  0
 18 19  1  0  0  0
 18 62  1  0  0  0
 18 63  1  0  0  0
 19 20  1  0  0  0
 19 64  1  0  0  0
 19 65  1  0  0  0
 20 21  1  0  0  0
 20 66  1  0  0  0
 20 67  1  0  0  0
 21 22  1  0  0  0
 21 68  1  0  0  0
 21 69  1  0  0  0
 22 23  1  0  0  0
 22 70  1  0  0  0
 22 71  1  0  0  0
 23 24  1  0  0  0
 23 72  1  0  0  0
 23 73  1  0  0  0
 24 74  1  0  0  0
 25 45  1  0  0  0
 25 26  1  0  0  0
 25 27  1  0  0  0
 26 75  1  0  0  0
 27 28  1  0  0  0
 27 76  1  0  0  0
 27 77  1  0  0  0
 28 29  1  0  0  0
 28 78  1  0  0  0
 28 96  1  0  0  0
 29 32  1  0  0  0
 29 30  1  0  0  0
 29 33  1  0  0  0
 30 31  1  0  0  0
 30 79  1  0  0  0
 30 80  1  0  0  0
 31 32  1  0  0  0
 32 81  1  0  0  0
 32 82  1  0  0  0
 33 38  1  0  0  0
 33 34  2  0  0  0
 34 35  1  0  0  0
 34 83  1  0  0  0
 35 36  2  0  0  0
 35 39  1  0  0  0
 36 37  1  0  0  0
 36 84  1  0  0  0
 37 38  2  0  0  0
 37 85  1  0  0  0
 38 86  1  0  0  0
 39 40  1  0  0  0
 39 41  1  0  0  0
 39 42  1  0  0  0
 40 87  1  0  0  0
 40 88  1  0  0  0
 40 89  1  0  0  0
 41 90  1  0  0  0
 41 91  1  0  0  0
 41 92  1  0  0  0
 42 93  1  0  0  0
 42 94  1  0  0  0
 42 95  1  0  0  0
M  CHG  1  28   1
M  END
> <s_m_source_file>
BACE_60.smi

> <i_m_source_file_index>
1

> <i_lp_mmshare_version>
42013

> <i_f3d_flags>
0

> <s_epik_input>
W2NIXTFbY0hdW2NIXWMoQyhbQ0gzXSkoW0NIM10pW0NIM10pW2NIXWMxQzIoW0NIMl1PW0NIMl0yKVtOSF1bQ0gyXVtDQEBIXShbT0hdKVtDQEBIXShbTkhdQyg9TyljKFtjSF0zKVtjSF1jKFtjSF1jMzQpW0NIMl1PW0NIM10pW0NIMl1bQ0BIXShbQ0gzXSlbQ0gyXVtDSDJdW0NIMl1bQ0gyXVtDSDJdW0NIMl1bQ0gyXVtOSF00

> <s_epik_cmdline>
J2VwaWtfcHl0aG9uJywgJy1waCcsICc3LjAnLCAnLXRuJywgJzgnLCAnLW1hJywgJzIwMCcsICctaW1hZScsICc8aW5maWxlLm1hZT4nLCAnLW9tYWUnLCAnPG91dGZpbGUubWFlPic=

> <r_epik_Ionization_Penalty>
0.202565

> <r_epik_Ionization_Penalty_Charging>
0.202026

> <r_epik_Ionization_Penalty_Neutral>
0.000538991

> <r_epik_State_Penalty>
0.191905

> <r_epik_Charging_Adjusted_Penalty>
0.393931

> <i_epik_Tot_Q>
1

> <i_epik_Tot_abs_Q>
1

> <s_lp_Force_Field>
OPLS_2005

> <r_lp_Energy>
50.3916

> <b_lp_Chiralities_Consistent>
1

> <s_lp_Variant>
BACE_60.smi:1-1

$$$$
BACE_60.smi:1
                    3D
 Structure written by MMmdl.
 95 98  0  0  1  0            999 V2000
    5.1328   -0.5396   -2.2257 C   0  0  0  0  0  0
    3.7868   -0.1052   -2.1523 O   0  0  0  0  0  0
    3.3782    0.6145   -3.3061 C   0  0  0  0  0  0
    1.9302    1.0572   -3.2148 C   0  0  0  0  0  0
    1.1335    1.1355   -4.3764 C   0  0  0  0  0  0
   -0.2085    1.5652   -4.3021 C   0  0  0  0  0  0
   -0.7513    1.9017   -3.0411 C   0  0  0  0  0  0
    0.0229    1.7792   -1.8706 C   0  0  0  0  0  0
    1.3769    1.4053   -1.9672 C   0  0  0  0  0  0
   -0.6070    2.0545   -0.5413 C   0  0  0  0  0  0
   -0.9794    3.1944   -0.2736 O   0  0  0  0  0  0
   -0.7935    1.0341    0.3218 N   0  0  0  0  0  0
   -0.4995   -0.4080    0.2361 C   0  0  1  0  0  0
   -1.0396   -1.1123   -1.0387 C   0  0  0  0  0  0
   -2.5207   -0.8718   -1.4161 C   0  0  2  0  0  0
   -3.4722   -1.5330   -0.4024 C   0  0  0  0  0  0
   -2.7582   -1.3720   -2.8590 C   0  0  0  0  0  0
   -4.1688   -1.1195   -3.4239 C   0  0  0  0  0  0
   -4.3079   -1.4768   -4.9171 C   0  0  0  0  0  0
   -3.4926   -0.6280   -5.9203 C   0  0  0  0  0  0
   -4.0023    0.8115   -6.1414 C   0  0  0  0  0  0
   -3.4448    1.8790   -5.1790 C   0  0  0  0  0  0
   -2.1037    2.5136   -5.6007 C   0  0  0  0  0  0
   -0.9565    1.6209   -5.4882 N   0  0  0  0  0  0
    0.9921   -0.7745    0.4933 C   0  0  2  0  0  0
    1.0235   -2.0733    1.0529 O   0  0  0  0  0  0
    1.7641    0.1479    1.4625 C   0  0  0  0  0  0
    3.2060    0.0476    1.2302 N   0  0  0  0  0  0
    4.0300    1.0359    1.9294 C   0  0  0  0  0  0
    3.8073    2.5275    1.5989 C   0  0  0  0  0  0
    5.2247    2.7573    1.4756 O   0  0  0  0  0  0
    5.4047    1.3374    1.3006 C   0  0  0  0  0  0
    4.1018    0.6552    3.4116 C   0  0  0  0  0  0
    3.2383    1.2506    4.3589 C   0  0  0  0  0  0
    3.2754    0.8906    5.7272 C   0  0  0  0  0  0
    4.2035   -0.0982    6.1349 C   0  0  0  0  0  0
    5.0527   -0.7144    5.1977 C   0  0  0  0  0  0
    4.9974   -0.3465    3.8424 C   0  0  0  0  0  0
    2.3115    1.5742    6.7159 C   0  0  0  0  0  0
    2.4779    1.0698    8.1674 C   0  0  0  0  0  0
    0.8533    1.3025    6.2903 C   0  0  0  0  0  0
    2.5662    3.0957    6.7184 C   0  0  0  0  0  0
   -1.0638   -0.8041    1.0808 H   0  0  0  0  0  0
   -2.7178    0.1999   -1.4122 H   0  0  0  0  0  0
    1.5169   -0.8184   -0.4607 H   0  0  0  0  0  0
    5.3905   -1.0830   -1.3166 H   0  0  0  0  0  0
    5.8156    0.3060   -2.3182 H   0  0  0  0  0  0
    5.2861   -1.2089   -3.0731 H   0  0  0  0  0  0
    4.0029    1.4997   -3.4342 H   0  0  0  0  0  0
    3.5085   -0.0096   -4.1917 H   0  0  0  0  0  0
    1.5586    0.8701   -5.3336 H   0  0  0  0  0  0
   -1.7758    2.2236   -2.9446 H   0  0  0  0  0  0
    1.9889    1.3645   -1.0795 H   0  0  0  0  0  0
   -1.2344    1.3040    1.1892 H   0  0  0  0  0  0
   -0.4085   -0.8373   -1.8825 H   0  0  0  0  0  0
   -0.8874   -2.1872   -0.9323 H   0  0  0  0  0  0
   -3.3510   -2.6166   -0.3927 H   0  0  0  0  0  0
   -4.5151   -1.3157   -0.6307 H   0  0  0  0  0  0
   -3.2926   -1.1689    0.6085 H   0  0  0  0  0  0
   -2.0330   -0.8770   -3.5036 H   0  0  0  0  0  0
   -2.5338   -2.4376   -2.9208 H   0  0  0  0  0  0
   -4.8794   -1.7348   -2.8721 H   0  0  0  0  0  0
   -4.4831   -0.0937   -3.2452 H   0  0  0  0  0  0
   -4.0229   -2.5220   -5.0422 H   0  0  0  0  0  0
   -5.3618   -1.4309   -5.1931 H   0  0  0  0  0  0
   -2.4312   -0.6383   -5.6806 H   0  0  0  0  0  0
   -3.5622   -1.1373   -6.8821 H   0  0  0  0  0  0
   -3.7764    1.1175   -7.1634 H   0  0  0  0  0  0
   -5.0911    0.8086   -6.0798 H   0  0  0  0  0  0
   -4.1748    2.6878   -5.1376 H   0  0  0  0  0  0
   -3.3882    1.4967   -4.1653 H   0  0  0  0  0  0
   -2.1687    2.8543   -6.6343 H   0  0  0  0  0  0
   -1.9180    3.4090   -5.0062 H   0  0  0  0  0  0
   -0.4791    1.3873   -6.3470 H   0  0  0  0  0  0
    0.6022   -2.0466    1.8981 H   0  0  0  0  0  0
    1.4725    1.1839    1.3030 H   0  0  0  0  0  0
    1.5127   -0.0782    2.4993 H   0  0  0  0  0  0
    3.4161    0.0512    0.2369 H   0  0  0  0  0  0
    3.3011    2.6944    0.6459 H   0  0  0  0  0  0
    3.3484    3.1304    2.3808 H   0  0  0  0  0  0
    6.2695    0.9525    1.8404 H   0  0  0  0  0  0
    5.4699    1.0786    0.2423 H   0  0  0  0  0  0
    2.5219    1.9866    4.0301 H   0  0  0  0  0  0
    4.2810   -0.4146    7.1631 H   0  0  0  0  0  0
    5.7462   -1.4771    5.5198 H   0  0  0  0  0  0
    5.6446   -0.8425    3.1344 H   0  0  0  0  0  0
    1.7815    1.5698    8.8415 H   0  0  0  0  0  0
    3.4813    1.2627    8.5485 H   0  0  0  0  0  0
    2.2837   -0.0003    8.2484 H   0  0  0  0  0  0
    0.6443    0.2325    6.2614 H   0  0  0  0  0  0
    0.6300    1.7068    5.3030 H   0  0  0  0  0  0
    0.1463    1.7556    6.9862 H   0  0  0  0  0  0
    1.9113    3.6059    7.4256 H   0  0  0  0  0  0
    2.3898    3.5440    5.7406 H   0  0  0  0  0  0
    3.5944    3.3230    7.0027 H   0  0  0  0  0  0
  1  2  1  0  0  0
  1 46  1  0  0  0
  1 47  1  0  0  0
  1 48  1  0  0  0
  2  3  1  0  0  0
  3  4  1  0  0  0
  3 49  1  0  0  0
  3 50  1  0  0  0
  4  9  1  0  0  0
  4  5  2  0  0  0
  5  6  1  0  0  0
  5 51  1  0  0  0
  6 24  1  0  0  0
  6  7  2  0  0  0
  7  8  1  0  0  0
  7 52  1  0  0  0
  8  9  2  0  0  0
  8 10  1  0  0  0
  9 53  1  0  0  0
 10 11  2  0  0  0
 10 12  1  0  0  0
 12 13  1  0  0  0
 12 54  1  0  0  0
 13 43  1  0  0  0
 13 14  1  0  0  0
 13 25  1  0  0  0
 14 15  1  0  0  0
 14 55  1  0  0  0
 14 56  1  0  0  0
 15 44  1  0  0  0
 15 16  1  0  0  0
 15 17  1  0  0  0
 16 57  1  0  0  0
 16 58  1  0  0  0
 16 59  1  0  0  0
 17 18  1  0  0  0
 17 60  1  0  0  0
 17 61  1  0  0  0
 18 19  1  0  0  0
 18 62  1  0  0  0
 18 63  1  0  0  0
 19 20  1  0  0  0
 19 64  1  0  0  0
 19 65  1  0  0  0
 20 21  1  0  0  0
 20 66  1  0  0  0
 20 67  1  0  0  0
 21 22  1  0  0  0
 21 68  1  0  0  0
 21 69  1  0  0  0
 22 23  1  0  0  0
 22 70  1  0  0  0
 22 71  1  0  0  0
 23 24  1  0  0  0
 23 72  1  0  0  0
 23 73  1  0  0  0
 24 74  1  0  0  0
 25 45  1  0  0  0
 25 26  1  0  0  0
 25 27  1  0  0  0
 26 75  1  0  0  0
 27 28  1  0  0  0
 27 76  1  0  0  0
 27 77  1  0  0  0
 28 29  1  0  0  0
 28 78  1  0  0  0
 29 32  1  0  0  0
 29 30  1  0  0  0
 29 33  1  0  0  0
 30 31  1  0  0  0
 30 79  1  0  0  0
 30 80  1  0  0  0
 31 32  1  0  0  0
 32 81  1  0  0  0
 32 82  1  0  0  0
 33 38  1  0  0  0
 33 34  2  0  0  0
 34 35  1  0  0  0
 34 83  1  0  0  0
 35 36  2  0  0  0
 35 39  1  0  0  0
 36 37  1  0  0  0
 36 84  1  0  0  0
 37 38  2  0  0  0
 37 85  1  0  0  0
 38 86  1  0  0  0
 39 40  1  0  0  0
 39 41  1  0  0  0
 39 42  1  0  0  0
 40 87  1  0  0  0
 40 88  1  0  0  0
 40 89  1  0  0  0
 41 90  1  0  0  0
 41 91  1  0  0  0
 41 92  1  0  0  0
 42 93  1  0  0  0
 42 94  1  0  0  0
 42 95  1  0  0  0
M  END
> <s_m_source_file>
BACE_60.smi

> <i_m_source_file_index>
1

> <i_lp_mmshare_version>
42013

> <i_f3d_flags>
0

> <s_epik_input>
W2NIXTFbY0hdW2NIXWMoQyhbQ0gzXSkoW0NIM10pW0NIM10pW2NIXWMxQzIoW0NIMl1PW0NIMl0yKVtOSF1bQ0gyXVtDQEBIXShbT0hdKVtDQEBIXShbTkhdQyg9TyljKFtjSF0zKVtjSF1jKFtjSF1jMzQpW0NIMl1PW0NIM10pW0NIMl1bQ0BIXShbQ0gzXSlbQ0gyXVtDSDJdW0NIMl1bQ0gyXVtDSDJdW0NIMl1bQ0gyXVtOSF00

> <s_epik_cmdline>
J2VwaWtfcHl0aG9uJywgJy1waCcsICc3LjAnLCAnLXRuJywgJzgnLCAnLW1hJywgJzIwMCcsICctaW1hZScsICc8aW5maWxlLm1hZT4nLCAnLW9tYWUnLCAnPG91dGZpbGUubWFlPic=

> <r_epik_Ionization_Penalty>
0.736232

> <r_epik_Ionization_Penalty_Charging>
0

> <r_epik_Ionization_Penalty_Neutral>
0.736232

> <r_epik_State_Penalty>
0.761291

> <r_epik_Charging_Adjusted_Penalty>
0.761291

> <i_epik_Tot_Q>
0

> <i_epik_Tot_abs_Q>
0

> <s_lp_Force_Field>
OPLS_2005

> <r_lp_Energy>
58.7869

> <b_lp_Chiralities_Consistent>
1

> <s_lp_Variant>
BACE_60.smi:1-2

$$$$
