BACE_86.smi:1
                    3D
 Structure written by MMmdl.
 89 91  0  0  1  0            999 V2000
   -0.9282    4.1381   -5.0550 C   0  0  0  0  0  0
   -0.3879    2.7736   -4.6029 C   0  0  0  0  0  0
   -0.1973    1.8213   -5.7953 C   0  0  0  0  0  0
   -1.2636    2.1680   -3.5122 C   0  0  0  0  0  0
   -0.8097    2.1453   -2.1753 C   0  0  0  0  0  0
   -1.6081    1.5829   -1.1561 C   0  0  0  0  0  0
   -1.1184    1.5564    0.2813 C   0  0  0  0  0  0
   -0.4429    0.2841    0.6116 N   0  3  0  0  0  0
    0.9236    0.1513    0.0658 C   0  0  0  0  0  0
    1.5448   -1.2160    0.4170 C   0  0  1  0  0  0
    0.8610   -2.2293   -0.2937 O   0  0  0  0  0  0
    3.0679   -1.3431    0.1288 C   0  0  2  0  0  0
    3.9131   -0.8659    1.3379 C   0  0  0  0  0  0
    5.4088   -1.2836    1.3273 C   0  0  2  0  0  0
    5.9806   -1.3740    2.7535 C   0  0  0  0  0  0
    6.3104   -0.4153    0.4219 C   0  0  0  0  0  0
    6.5455    1.0329    0.9042 C   0  0  0  0  0  0
    6.6311    2.0517   -0.2424 C   0  0  0  0  0  0
    7.7717    1.7939   -1.2420 C   0  0  0  0  0  0
    7.6635    2.7188   -2.4662 C   0  0  0  0  0  0
    8.5204    2.3088   -3.6801 C   0  0  0  0  0  0
    8.1855    0.9578   -4.3564 C   0  0  0  0  0  0
    7.0809    0.9486   -5.4441 C   0  0  0  0  0  0
    5.5884    0.9493   -5.0105 C   0  0  1  0  0  0
    5.2357    2.2747   -4.6679 O   0  0  0  0  0  0
    4.6937    0.5649   -6.2132 C   0  0  0  0  0  0
    3.2022    0.4762   -5.8448 C   0  0  0  0  0  0
    2.9757   -0.5034   -4.6864 C   0  0  0  0  0  0
    3.8098   -0.1107   -3.4497 C   0  0  2  0  0  0
    5.3066    0.0001   -3.8164 C   0  0  0  0  0  0
    3.6013   -1.1109   -2.3014 C   0  0  0  0  0  0
    3.5822   -2.3213   -2.5255 O   0  0  0  0  0  0
    3.4208   -0.5889   -1.0772 N   0  0  0  0  0  0
   -2.8716    1.0457   -1.4767 C   0  0  0  0  0  0
   -3.3349    1.0752   -2.8051 C   0  0  0  0  0  0
   -2.5359    1.6369   -3.8187 C   0  0  0  0  0  0
    1.3667   -1.4250    1.4726 H   0  0  0  0  0  0
    3.3016   -2.4014   -0.0049 H   0  0  0  0  0  0
    5.4517   -2.2974    0.9271 H   0  0  0  0  0  0
    3.4640    0.8670   -3.1091 H   0  0  0  0  0  0
   -0.9956    4.8307   -4.2154 H   0  0  0  0  0  0
   -1.9226    4.0485   -5.4938 H   0  0  0  0  0  0
   -0.2756    4.5895   -5.8028 H   0  0  0  0  0  0
    0.6012    2.9418   -4.1743 H   0  0  0  0  0  0
    0.1976    0.8592   -5.4697 H   0  0  0  0  0  0
    0.5050    2.2384   -6.5176 H   0  0  0  0  0  0
   -1.1329    1.6350   -6.3227 H   0  0  0  0  0  0
    0.1577    2.5584   -1.9289 H   0  0  0  0  0  0
   -0.4560    2.4005    0.4778 H   0  0  0  0  0  0
   -1.9751    1.6726    0.9458 H   0  0  0  0  0  0
   -0.3829    0.2089    1.6168 H   0  0  0  0  0  0
    0.9023    0.2872   -1.0157 H   0  0  0  0  0  0
    1.5357    0.9538    0.4796 H   0  0  0  0  0  0
    1.2574   -3.0629   -0.0883 H   0  0  0  0  0  0
    3.8065    0.2104    1.4708 H   0  0  0  0  0  0
    3.4700   -1.3042    2.2325 H   0  0  0  0  0  0
    5.9357   -0.4146    3.2694 H   0  0  0  0  0  0
    7.0221   -1.6960    2.7391 H   0  0  0  0  0  0
    5.4273   -2.0963    3.3545 H   0  0  0  0  0  0
    7.2815   -0.9012    0.3191 H   0  0  0  0  0  0
    5.9068   -0.4099   -0.5866 H   0  0  0  0  0  0
    5.7373    1.3488    1.5624 H   0  0  0  0  0  0
    7.4507    1.0743    1.5112 H   0  0  0  0  0  0
    5.6768    2.0477   -0.7713 H   0  0  0  0  0  0
    6.7388    3.0540    0.1734 H   0  0  0  0  0  0
    8.7388    1.9263   -0.7557 H   0  0  0  0  0  0
    7.7365    0.7547   -1.5587 H   0  0  0  0  0  0
    6.6235    2.8049   -2.7584 H   0  0  0  0  0  0
    7.9514    3.7252   -2.1607 H   0  0  0  0  0  0
    8.4813    3.0994   -4.4301 H   0  0  0  0  0  0
    9.5591    2.2753   -3.3497 H   0  0  0  0  0  0
    9.0990    0.6567   -4.8704 H   0  0  0  0  0  0
    8.0291    0.1640   -3.6296 H   0  0  0  0  0  0
    7.2621    1.7576   -6.1534 H   0  0  0  0  0  0
    7.2447    0.0356   -6.0180 H   0  0  0  0  0  0
    4.3102    2.2985   -4.4796 H   0  0  0  0  0  0
    4.8280    1.2766   -7.0291 H   0  0  0  0  0  0
    5.0088   -0.4032   -6.6052 H   0  0  0  0  0  0
    2.8248    1.4625   -5.5727 H   0  0  0  0  0  0
    2.6258    0.1583   -6.7139 H   0  0  0  0  0  0
    1.9160   -0.5310   -4.4302 H   0  0  0  0  0  0
    3.2386   -1.5090   -5.0193 H   0  0  0  0  0  0
    5.6948   -0.9917   -4.0551 H   0  0  0  0  0  0
    5.8538    0.3372   -2.9376 H   0  0  0  0  0  0
    3.4790    0.4148   -0.9839 H   0  0  0  0  0  0
   -3.4912    0.6127   -0.7050 H   0  0  0  0  0  0
   -4.3053    0.6678   -3.0472 H   0  0  0  0  0  0
   -2.9079    1.6580   -4.8324 H   0  0  0  0  0  0
   -1.0059   -0.4797    0.2649 H   0  0  0  0  0  0
  1  2  1  0  0  0
  1 41  1  0  0  0
  1 42  1  0  0  0
  1 43  1  0  0  0
  2  3  1  0  0  0
  2  4  1  0  0  0
  2 44  1  0  0  0
  3 45  1  0  0  0
  3 46  1  0  0  0
  3 47  1  0  0  0
  4 36  1  0  0  0
  4  5  2  0  0  0
  5  6  1  0  0  0
  5 48  1  0  0  0
  6  7  1  0  0  0
  6 34  2  0  0  0
  7  8  1  0  0  0
  7 49  1  0  0  0
  7 50  1  0  0  0
  8  9  1  0  0  0
  8 51  1  0  0  0
  8 89  1  0  0  0
  9 10  1  0  0  0
  9 52  1  0  0  0
  9 53  1  0  0  0
 10 37  1  0  0  0
 10 11  1  0  0  0
 10 12  1  0  0  0
 11 54  1  0  0  0
 12 38  1  0  0  0
 12 33  1  0  0  0
 12 13  1  0  0  0
 13 14  1  0  0  0
 13 55  1  0  0  0
 13 56  1  0  0  0
 14 39  1  0  0  0
 14 15  1  0  0  0
 14 16  1  0  0  0
 15 57  1  0  0  0
 15 58  1  0  0  0
 15 59  1  0  0  0
 16 17  1  0  0  0
 16 60  1  0  0  0
 16 61  1  0  0  0
 17 18  1  0  0  0
 17 62  1  0  0  0
 17 63  1  0  0  0
 18 19  1  0  0  0
 18 64  1  0  0  0
 18 65  1  0  0  0
 19 20  1  0  0  0
 19 66  1  0  0  0
 19 67  1  0  0  0
 20 21  1  0  0  0
 20 68  1  0  0  0
 20 69  1  0  0  0
 21 22  1  0  0  0
 21 70  1  0  0  0
 21 71  1  0  0  0
 22 23  1  0  0  0
 22 72  1  0  0  0
 22 73  1  0  0  0
 23 24  1  0  0  0
 23 74  1  0  0  0
 23 75  1  0  0  0
 24 30  1  0  0  0
 24 25  1  0  0  0
 24 26  1  0  0  0
 25 76  1  0  0  0
 26 27  1  0  0  0
 26 77  1  0  0  0
 26 78  1  0  0  0
 27 28  1  0  0  0
 27 79  1  0  0  0
 27 80  1  0  0  0
 28 29  1  0  0  0
 28 81  1  0  0  0
 28 82  1  0  0  0
 29 40  1  0  0  0
 29 30  1  0  0  0
 29 31  1  0  0  0
 30 83  1  0  0  0
 30 84  1  0  0  0
 31 32  2  0  0  0
 31 33  1  0  0  0
 33 85  1  0  0  0
 34 35  1  0  0  0
 34 86  1  0  0  0
 35 36  2  0  0  0
 35 87  1  0  0  0
 36 88  1  0  0  0
M  CHG  1   8   1
M  END
> <s_m_source_file>
BACE_86.smi

> <i_m_source_file_index>
1

> <i_lp_mmshare_version>
42013

> <i_f3d_flags>
0

> <s_epik_input>
W0NIM11bQ0hdKFtDSDNdKWMxW2NIXWMoW2NIXVtjSF1bY0hdMSlbQ0gyXVtOSF1bQ0gyXVtDQEBIXShbT0hdKVtDQEBIXShbTkhdQyg9TylbQ0BASF0oW0NIMl0yKVtDSDJdW0NIMl1bQ0gyXTMpW0NIMl1bQ0BIXShbQ0gzXSlbQ0gyXVtDSDJdW0NIMl1bQ0gyXVtDSDJdW0NIMl1bQ0gyXVtDSDJdW0NAXTIzW09IXQ==

> <s_epik_cmdline>
J2VwaWtfcHl0aG9uJywgJy1waCcsICc3LjAnLCAnLXRuJywgJzgnLCAnLW1hJywgJzIwMCcsICctaW1hZScsICc8aW5maWxlLm1hZT4nLCAnLW9tYWUnLCAnPG91dGZpbGUubWFlPic=

> <r_epik_Ionization_Penalty>
0.0169471

> <r_epik_Ionization_Penalty_Charging>
0.0169462

> <r_epik_Ionization_Penalty_Neutral>
8.83381e-07

> <r_epik_State_Penalty>
0.0134044

> <r_epik_Charging_Adjusted_Penalty>
0.0303506

> <i_epik_Tot_Q>
1

> <i_epik_Tot_abs_Q>
1

> <s_lp_Force_Field>
OPLS_2005

> <r_lp_Energy>
37.6376

> <b_lp_Chiralities_Consistent>
1

> <s_lp_Variant>
BACE_86.smi:1-1

$$$$
BACE_86.smi:1
                    3D
 Structure written by MMmdl.
 88 90  0  0  1  0            999 V2000
   -4.5213    0.3980   -1.6827 C   0  0  0  0  0  0
   -4.0061    1.1763   -0.4620 C   0  0  0  0  0  0
   -5.0281    2.2174    0.0220 C   0  0  0  0  0  0
   -2.6448    1.8044   -0.7324 C   0  0  0  0  0  0
   -1.5146    1.3824    0.0008 C   0  0  0  0  0  0
   -0.2487    1.9543   -0.2440 C   0  0  0  0  0  0
    0.9611    1.4904    0.5447 C   0  0  0  0  0  0
    1.3401    0.1114    0.2495 N   0  0  0  0  0  0
    1.9702   -0.0752   -1.0601 C   0  0  0  0  0  0
    2.4822   -1.5213   -1.2459 C   0  0  1  0  0  0
    2.6156   -1.7283   -2.6381 O   0  0  0  0  0  0
    3.8639   -1.8392   -0.5954 C   0  0  2  0  0  0
    4.0854   -3.3498   -0.3131 C   0  0  0  0  0  0
    3.5940   -3.9359    1.0398 C   0  0  2  0  0  0
    4.0885   -5.3906    1.1542 C   0  0  0  0  0  0
    2.0604   -3.8235    1.2246 C   0  0  0  0  0  0
    1.4489   -4.5649    2.4331 C   0  0  0  0  0  0
    1.9563   -4.1259    3.8185 C   0  0  0  0  0  0
    1.4783   -2.7297    4.2468 C   0  0  0  0  0  0
    1.9020   -2.3913    5.6873 C   0  0  0  0  0  0
    1.4147   -1.0174    6.1920 C   0  0  0  0  0  0
    2.0196    0.1934    5.4591 C   0  0  0  0  0  0
    3.5263    0.4123    5.7367 C   0  0  0  0  0  0
    4.3546    0.9392    4.5409 C   0  0  1  0  0  0
    3.7323    2.1225    4.0724 O   0  0  0  0  0  0
    5.7850    1.3020    5.0048 C   0  0  0  0  0  0
    6.7062    1.7178    3.8440 C   0  0  0  0  0  0
    6.7540    0.6394    2.7521 C   0  0  0  0  0  0
    5.3378    0.3183    2.2305 C   0  0  2  0  0  0
    4.4174   -0.1036    3.3972 C   0  0  0  0  0  0
    5.3339   -0.7386    1.1134 C   0  0  0  0  0  0
    6.3771   -1.2702    0.7329 O   0  0  0  0  0  0
    4.1347   -1.0018    0.5713 N   0  0  0  0  0  0
   -0.1113    2.9555   -1.2268 C   0  0  0  0  0  0
   -1.2340    3.3806   -1.9617 C   0  0  0  0  0  0
   -2.4963    2.8071   -1.7161 C   0  0  0  0  0  0
    1.7121   -2.2101   -0.9055 H   0  0  0  0  0  0
    4.6195   -1.5408   -1.3262 H   0  0  0  0  0  0
    4.0714   -3.3798    1.8467 H   0  0  0  0  0  0
    4.9333    1.2284    1.7848 H   0  0  0  0  0  0
   -3.8136   -0.3772   -1.9785 H   0  0  0  0  0  0
   -4.6779    1.0516   -2.5411 H   0  0  0  0  0  0
   -5.4708   -0.0907   -1.4626 H   0  0  0  0  0  0
   -3.8817    0.4550    0.3469 H   0  0  0  0  0  0
   -4.6736    2.7257    0.9194 H   0  0  0  0  0  0
   -5.9805    1.7459    0.2668 H   0  0  0  0  0  0
   -5.2229    2.9763   -0.7363 H   0  0  0  0  0  0
   -1.6131    0.6140    0.7538 H   0  0  0  0  0  0
    1.8035    2.1630    0.3786 H   0  0  0  0  0  0
    0.7112    1.5743    1.6028 H   0  0  0  0  0  0
    1.9360   -0.2488    0.9869 H   0  0  0  0  0  0
    1.2381    0.1539   -1.8358 H   0  0  0  0  0  0
    2.7910    0.6296   -1.1996 H   0  0  0  0  0  0
    2.8657   -2.6277   -2.7849 H   0  0  0  0  0  0
    3.6669   -3.9321   -1.1349 H   0  0  0  0  0  0
    5.1606   -3.5252   -0.3707 H   0  0  0  0  0  0
    3.5961   -6.0352    0.4256 H   0  0  0  0  0  0
    3.9090   -5.8051    2.1458 H   0  0  0  0  0  0
    5.1631   -5.4563    0.9810 H   0  0  0  0  0  0
    1.7845   -2.7718    1.2932 H   0  0  0  0  0  0
    1.5734   -4.2049    0.3266 H   0  0  0  0  0  0
    0.3652   -4.4451    2.4040 H   0  0  0  0  0  0
    1.6135   -5.6362    2.3188 H   0  0  0  0  0  0
    1.6010   -4.8512    4.5515 H   0  0  0  0  0  0
    3.0444   -4.1758    3.8570 H   0  0  0  0  0  0
    1.8772   -1.9913    3.5537 H   0  0  0  0  0  0
    0.3919   -2.6743    4.1677 H   0  0  0  0  0  0
    1.5019   -3.1561    6.3541 H   0  0  0  0  0  0
    2.9854   -2.4674    5.7746 H   0  0  0  0  0  0
    0.3284   -0.9775    6.1052 H   0  0  0  0  0  0
    1.6301   -0.9298    7.2576 H   0  0  0  0  0  0
    1.8083    0.1079    4.3959 H   0  0  0  0  0  0
    1.4856    1.0930    5.7676 H   0  0  0  0  0  0
    3.6188    1.0987    6.5798 H   0  0  0  0  0  0
    3.9862   -0.5126    6.0821 H   0  0  0  0  0  0
    4.2570    2.4795    3.3720 H   0  0  0  0  0  0
    5.7515    2.0989    5.7492 H   0  0  0  0  0  0
    6.2292    0.4412    5.5069 H   0  0  0  0  0  0
    6.3612    2.6592    3.4144 H   0  0  0  0  0  0
    7.7119    1.9050    4.2212 H   0  0  0  0  0  0
    7.3915    0.9801    1.9350 H   0  0  0  0  0  0
    7.2191   -0.2617    3.1556 H   0  0  0  0  0  0
    4.7671   -1.0559    3.8001 H   0  0  0  0  0  0
    3.4169   -0.2921    3.0125 H   0  0  0  0  0  0
    3.3405   -0.5152    0.9591 H   0  0  0  0  0  0
    0.8548    3.3976   -1.4222 H   0  0  0  0  0  0
   -1.1274    4.1467   -2.7156 H   0  0  0  0  0  0
   -3.3498    3.1402   -2.2879 H   0  0  0  0  0  0
  1  2  1  0  0  0
  1 41  1  0  0  0
  1 42  1  0  0  0
  1 43  1  0  0  0
  2  3  1  0  0  0
  2  4  1  0  0  0
  2 44  1  0  0  0
  3 45  1  0  0  0
  3 46  1  0  0  0
  3 47  1  0  0  0
  4 36  1  0  0  0
  4  5  2  0  0  0
  5  6  1  0  0  0
  5 48  1  0  0  0
  6  7  1  0  0  0
  6 34  2  0  0  0
  7  8  1  0  0  0
  7 49  1  0  0  0
  7 50  1  0  0  0
  8  9  1  0  0  0
  8 51  1  0  0  0
  9 10  1  0  0  0
  9 52  1  0  0  0
  9 53  1  0  0  0
 10 37  1  0  0  0
 10 11  1  0  0  0
 10 12  1  0  0  0
 11 54  1  0  0  0
 12 38  1  0  0  0
 12 33  1  0  0  0
 12 13  1  0  0  0
 13 14  1  0  0  0
 13 55  1  0  0  0
 13 56  1  0  0  0
 14 39  1  0  0  0
 14 15  1  0  0  0
 14 16  1  0  0  0
 15 57  1  0  0  0
 15 58  1  0  0  0
 15 59  1  0  0  0
 16 17  1  0  0  0
 16 60  1  0  0  0
 16 61  1  0  0  0
 17 18  1  0  0  0
 17 62  1  0  0  0
 17 63  1  0  0  0
 18 19  1  0  0  0
 18 64  1  0  0  0
 18 65  1  0  0  0
 19 20  1  0  0  0
 19 66  1  0  0  0
 19 67  1  0  0  0
 20 21  1  0  0  0
 20 68  1  0  0  0
 20 69  1  0  0  0
 21 22  1  0  0  0
 21 70  1  0  0  0
 21 71  1  0  0  0
 22 23  1  0  0  0
 22 72  1  0  0  0
 22 73  1  0  0  0
 23 24  1  0  0  0
 23 74  1  0  0  0
 23 75  1  0  0  0
 24 30  1  0  0  0
 24 25  1  0  0  0
 24 26  1  0  0  0
 25 76  1  0  0  0
 26 27  1  0  0  0
 26 77  1  0  0  0
 26 78  1  0  0  0
 27 28  1  0  0  0
 27 79  1  0  0  0
 27 80  1  0  0  0
 28 29  1  0  0  0
 28 81  1  0  0  0
 28 82  1  0  0  0
 29 40  1  0  0  0
 29 30  1  0  0  0
 29 31  1  0  0  0
 30 83  1  0  0  0
 30 84  1  0  0  0
 31 32  2  0  0  0
 31 33  1  0  0  0
 33 85  1  0  0  0
 34 35  1  0  0  0
 34 86  1  0  0  0
 35 36  2  0  0  0
 35 87  1  0  0  0
 36 88  1  0  0  0
M  END
> <s_m_source_file>
BACE_86.smi

> <i_m_source_file_index>
1

> <i_lp_mmshare_version>
42013

> <i_f3d_flags>
0

> <s_epik_input>
W0NIM11bQ0hdKFtDSDNdKWMxW2NIXWMoW2NIXVtjSF1bY0hdMSlbQ0gyXVtOSF1bQ0gyXVtDQEBIXShbT0hdKVtDQEBIXShbTkhdQyg9TylbQ0BASF0oW0NIMl0yKVtDSDJdW0NIMl1bQ0gyXTMpW0NIMl1bQ0BIXShbQ0gzXSlbQ0gyXVtDSDJdW0NIMl1bQ0gyXVtDSDJdW0NIMl1bQ0gyXVtDSDJdW0NAXTIzW09IXQ==

> <s_epik_cmdline>
J2VwaWtfcHl0aG9uJywgJy1waCcsICc3LjAnLCAnLXRuJywgJzgnLCAnLW1hJywgJzIwMCcsICctaW1hZScsICc8aW5maWxlLm1hZT4nLCAnLW9tYWUnLCAnPG91dGZpbGUubWFlPic=

> <r_epik_Ionization_Penalty>
2.11432

> <r_epik_Ionization_Penalty_Charging>
0

> <r_epik_Ionization_Penalty_Neutral>
2.11432

> <r_epik_State_Penalty>
2.25147

> <r_epik_Charging_Adjusted_Penalty>
2.25147

> <i_epik_Tot_Q>
0

> <i_epik_Tot_abs_Q>
0

> <s_lp_Force_Field>
OPLS_2005

> <r_lp_Energy>
39.3638

> <b_lp_Chiralities_Consistent>
1

> <s_lp_Variant>
BACE_86.smi:1-2

$$$$
