BACE_32.smi:1
                    3D
 Structure written by MMmdl.
 82 83  0  0  1  0            999 V2000
   -0.4566    2.5500    5.9622 C   0  0  0  0  0  0
    0.0082    1.4691    4.9734 C   0  0  0  0  0  0
    0.8880    0.4118    5.6577 C   0  0  0  0  0  0
    0.7047    2.0705    3.7595 C   0  0  0  0  0  0
    1.8603    2.8679    3.9136 C   0  0  0  0  0  0
    2.5070    3.4074    2.7859 C   0  0  0  0  0  0
    2.0062    3.1503    1.4962 C   0  0  0  0  0  0
    0.8554    2.3515    1.3302 C   0  0  0  0  0  0
    0.3432    2.0246   -0.0631 C   0  0  0  0  0  0
    0.5947    0.6109   -0.4176 N   0  3  0  0  0  0
    2.0203    0.2384   -0.5368 C   0  0  0  0  0  0
    2.1949   -1.2967   -0.5449 C   0  0  1  0  0  0
    2.0043   -1.7195   -1.8791 O   0  0  0  0  0  0
    3.5882   -1.7696   -0.0405 C   0  0  2  0  0  0
    3.7679   -3.3104    0.0299 C   0  0  0  0  0  0
    4.2247   -4.0133   -1.2733 C   0  0  2  0  0  0
    4.4496   -5.5133   -1.0236 C   0  0  0  0  0  0
    5.4604   -3.3684   -1.9491 C   0  0  0  0  0  0
    6.6697   -3.1171   -1.0239 C   0  0  0  0  0  0
    7.7229   -2.2133   -1.6812 C   0  0  0  0  0  0
    8.9476   -1.9216   -0.7946 C   0  0  0  0  0  0
    8.6673   -1.1537    0.5137 C   0  0  0  0  0  0
    7.9646    0.2043    0.3211 C   0  0  0  0  0  0
    8.1424    1.1724    1.5092 C   0  0  0  0  0  0
    7.5747    0.6848    2.8599 C   0  0  0  0  0  0
    6.0348    0.6055    2.9053 C   0  0  0  0  0  0
    5.3911    1.5079    2.3666 O   0  0  0  0  0  0
    5.4231   -0.4329    3.5331 N   0  0  0  0  0  0
    6.1638   -1.5454    4.1349 C   0  0  0  0  0  0
    3.9526   -0.5238    3.6234 C   0  0  0  0  0  0
    3.2737   -1.1677    2.4030 C   0  0  0  0  0  0
    2.1431   -1.6367    2.5215 O   0  0  0  0  0  0
    3.9661   -1.1912    1.2502 N   0  0  0  0  0  0
    0.2049    1.8200    2.4635 C   0  0  0  0  0  0
    1.4179   -1.7617    0.0625 H   0  0  0  0  0  0
    4.3307   -1.3407   -0.7096 H   0  0  0  0  0  0
    3.4073   -3.9474   -1.9907 H   0  0  0  0  0  0
   -1.1161    3.2683    5.4748 H   0  0  0  0  0  0
    0.3834    3.1016    6.3847 H   0  0  0  0  0  0
   -1.0087    2.1082    6.7920 H   0  0  0  0  0  0
   -0.8883    0.9579    4.6201 H   0  0  0  0  0  0
    1.1484   -0.3874    4.9637 H   0  0  0  0  0  0
    0.3688   -0.0437    6.5012 H   0  0  0  0  0  0
    1.8162    0.8427    6.0338 H   0  0  0  0  0  0
    2.2607    3.0640    4.8974 H   0  0  0  0  0  0
    3.3938    4.0115    2.9103 H   0  0  0  0  0  0
    2.5182    3.5563    0.6360 H   0  0  0  0  0  0
   -0.7308    2.2098   -0.0980 H   0  0  0  0  0  0
    0.8025    2.6781   -0.8061 H   0  0  0  0  0  0
    0.1812    0.0369    0.3034 H   0  0  0  0  0  0
    2.4576    0.6971   -1.4249 H   0  0  0  0  0  0
    2.5534    0.6703    0.3061 H   0  0  0  0  0  0
    2.0896   -2.6607   -1.9111 H   0  0  0  0  0  0
    4.4966   -3.5534    0.8050 H   0  0  0  0  0  0
    2.8391   -3.7621    0.3805 H   0  0  0  0  0  0
    5.2581   -5.6834   -0.3121 H   0  0  0  0  0  0
    4.7047   -6.0337   -1.9471 H   0  0  0  0  0  0
    3.5514   -5.9833   -0.6217 H   0  0  0  0  0  0
    5.7786   -3.9874   -2.7891 H   0  0  0  0  0  0
    5.1576   -2.4263   -2.4055 H   0  0  0  0  0  0
    6.3465   -2.6367   -0.1031 H   0  0  0  0  0  0
    7.1192   -4.0671   -0.7340 H   0  0  0  0  0  0
    8.0654   -2.6855   -2.6027 H   0  0  0  0  0  0
    7.2611   -1.2730   -1.9839 H   0  0  0  0  0  0
    9.4435   -2.8622   -0.5524 H   0  0  0  0  0  0
    9.6687   -1.3526   -1.3826 H   0  0  0  0  0  0
    8.0866   -1.7740    1.1965 H   0  0  0  0  0  0
    9.6251   -0.9895    1.0089 H   0  0  0  0  0  0
    8.3725    0.6898   -0.5662 H   0  0  0  0  0  0
    6.9049    0.0476    0.1162 H   0  0  0  0  0  0
    9.2066    1.3742    1.6365 H   0  0  0  0  0  0
    7.7003    2.1355    1.2505 H   0  0  0  0  0  0
    8.0594   -0.2548    3.1147 H   0  0  0  0  0  0
    7.8750    1.3866    3.6384 H   0  0  0  0  0  0
    6.8506   -1.1872    4.9029 H   0  0  0  0  0  0
    6.7330   -2.0829    3.3757 H   0  0  0  0  0  0
    5.5067   -2.2758    4.6071 H   0  0  0  0  0  0
    3.6629   -1.0806    4.5154 H   0  0  0  0  0  0
    3.5215    0.4679    3.7664 H   0  0  0  0  0  0
    4.8831   -0.7685    1.2775 H   0  0  0  0  0  0
   -0.6716    1.2017    2.3337 H   0  0  0  0  0  0
    0.1386    0.4028   -1.2944 H   0  0  0  0  0  0
  1  2  1  0  0  0
  1 38  1  0  0  0
  1 39  1  0  0  0
  1 40  1  0  0  0
  2  3  1  0  0  0
  2  4  1  0  0  0
  2 41  1  0  0  0
  3 42  1  0  0  0
  3 43  1  0  0  0
  3 44  1  0  0  0
  4 34  1  0  0  0
  4  5  2  0  0  0
  5  6  1  0  0  0
  5 45  1  0  0  0
  6  7  2  0  0  0
  6 46  1  0  0  0
  7  8  1  0  0  0
  7 47  1  0  0  0
  8  9  1  0  0  0
  8 34  2  0  0  0
  9 10  1  0  0  0
  9 48  1  0  0  0
  9 49  1  0  0  0
 10 11  1  0  0  0
 10 50  1  0  0  0
 10 82  1  0  0  0
 11 12  1  0  0  0
 11 51  1  0  0  0
 11 52  1  0  0  0
 12 35  1  0  0  0
 12 13  1  0  0  0
 12 14  1  0  0  0
 13 53  1  0  0  0
 14 36  1  0  0  0
 14 33  1  0  0  0
 14 15  1  0  0  0
 15 16  1  0  0  0
 15 54  1  0  0  0
 15 55  1  0  0  0
 16 37  1  0  0  0
 16 17  1  0  0  0
 16 18  1  0  0  0
 17 56  1  0  0  0
 17 57  1  0  0  0
 17 58  1  0  0  0
 18 19  1  0  0  0
 18 59  1  0  0  0
 18 60  1  0  0  0
 19 20  1  0  0  0
 19 61  1  0  0  0
 19 62  1  0  0  0
 20 21  1  0  0  0
 20 63  1  0  0  0
 20 64  1  0  0  0
 21 22  1  0  0  0
 21 65  1  0  0  0
 21 66  1  0  0  0
 22 23  1  0  0  0
 22 67  1  0  0  0
 22 68  1  0  0  0
 23 24  1  0  0  0
 23 69  1  0  0  0
 23 70  1  0  0  0
 24 25  1  0  0  0
 24 71  1  0  0  0
 24 72  1  0  0  0
 25 26  1  0  0  0
 25 73  1  0  0  0
 25 74  1  0  0  0
 26 27  2  0  0  0
 26 28  1  0  0  0
 28 29  1  0  0  0
 28 30  1  0  0  0
 29 75  1  0  0  0
 29 76  1  0  0  0
 29 77  1  0  0  0
 30 31  1  0  0  0
 30 78  1  0  0  0
 30 79  1  0  0  0
 31 32  2  0  0  0
 31 33  1  0  0  0
 33 80  1  0  0  0
 34 81  1  0  0  0
M  CHG  1  10   1
M  END
> <s_m_source_file>
BACE_32.smi

> <i_m_source_file_index>
1

> <i_lp_mmshare_version>
42013

> <i_f3d_flags>
0

> <s_epik_input>
W0NIM11bQ0hdKFtDSDNdKWMxW2NIXVtjSF1bY0hdYyhbY0hdMSlbQ0gyXVtOSF1bQ0gyXVtDQEBIXShbT0hdKVtDQEBIXTJbQ0gyXVtDQEhdKFtDSDNdKVtDSDJdW0NIMl1bQ0gyXVtDSDJdW0NIMl1bQ0gyXVtDSDJdW0NIMl1DKD1PKU4oW0NIM10pW0NIMl1DKD1PKVtOSF0y

> <s_epik_cmdline>
J2VwaWtfcHl0aG9uJywgJy1waCcsICc3LjAnLCAnLXRuJywgJzgnLCAnLW1hJywgJzIwMCcsICctaW1hZScsICc8aW5maWxlLm1hZT4nLCAnLW9tYWUnLCAnPG91dGZpbGUubWFlPic=

> <r_epik_Ionization_Penalty>
0.0181596

> <r_epik_Ionization_Penalty_Charging>
0.0181594

> <r_epik_Ionization_Penalty_Neutral>
2.93095e-07

> <r_epik_State_Penalty>
0.0144341

> <r_epik_Charging_Adjusted_Penalty>
0.0325934

> <i_epik_Tot_Q>
1

> <i_epik_Tot_abs_Q>
1

> <s_lp_Force_Field>
OPLS_2005

> <r_lp_Energy>
19.9006

> <b_lp_Chiralities_Consistent>
1

> <s_lp_Variant>
BACE_32.smi:1-1

$$$$
BACE_32.smi:1
                    3D
 Structure written by MMmdl.
 81 82  0  0  1  0            999 V2000
   -4.8270    0.1824   -2.2627 C   0  0  0  0  0  0
   -4.3190    1.2587   -1.2906 C   0  0  0  0  0  0
   -5.3540    2.3772   -1.0909 C   0  0  0  0  0  0
   -2.9672    1.8120   -1.7235 C   0  0  0  0  0  0
   -2.8322    2.5156   -2.9410 C   0  0  0  0  0  0
   -1.5788    3.0221   -3.3341 C   0  0  0  0  0  0
   -0.4510    2.8278   -2.5147 C   0  0  0  0  0  0
   -0.5742    2.1247   -1.2991 C   0  0  0  0  0  0
    0.6431    1.9052   -0.4198 C   0  0  0  0  0  0
    1.0152    0.4978   -0.3031 N   0  0  0  0  0  0
    1.6240   -0.0647   -1.5077 C   0  0  0  0  0  0
    2.0617   -1.5346   -1.3151 C   0  0  1  0  0  0
    2.1188   -2.0773   -2.6178 O   0  0  0  0  0  0
    3.4617   -1.7213   -0.6586 C   0  0  2  0  0  0
    3.8707   -3.2055   -0.4315 C   0  0  0  0  0  0
    4.5788   -3.9194   -1.6103 C   0  0  2  0  0  0
    4.8171   -5.4012   -1.2749 C   0  0  0  0  0  0
    5.8853   -3.2322   -2.0802 C   0  0  0  0  0  0
    6.9456   -3.0136   -0.9842 C   0  0  0  0  0  0
    8.1537   -2.2083   -1.4867 C   0  0  0  0  0  0
    9.3053   -2.1067   -0.4690 C   0  0  0  0  0  0
    8.9429   -1.4717    0.8872 C   0  0  0  0  0  0
    8.4302   -0.0232    0.7909 C   0  0  0  0  0  0
    8.3231    0.6851    2.1570 C   0  0  0  0  0  0
    7.2716    0.1009    3.1276 C   0  0  0  0  0  0
    5.8046    0.3155    2.7021 C   0  0  0  0  0  0
    5.5500    1.1712    1.8523 O   0  0  0  0  0  0
    4.8322   -0.4333    3.2826 N   0  0  0  0  0  0
    5.1283   -1.4630    4.2834 C   0  0  0  0  0  0
    3.4123   -0.2748    2.9231 C   0  0  0  0  0  0
    3.0035   -1.1894    1.7634 C   0  0  0  0  0  0
    2.1735   -2.0791    1.9444 O   0  0  0  0  0  0
    3.6055   -0.9611    0.5838 N   0  0  0  0  0  0
   -1.8319    1.6206   -0.9065 C   0  0  0  0  0  0
    1.2975   -2.0818   -0.7610 H   0  0  0  0  0  0
    4.1916   -1.2459   -1.3105 H   0  0  0  0  0  0
    3.9023   -3.9156   -2.4634 H   0  0  0  0  0  0
   -4.1078   -0.6325   -2.3550 H   0  0  0  0  0  0
   -4.9992    0.5894   -3.2595 H   0  0  0  0  0  0
   -5.7670   -0.2471   -1.9145 H   0  0  0  0  0  0
   -4.1829    0.7750   -0.3222 H   0  0  0  0  0  0
   -5.0042    3.1077   -0.3608 H   0  0  0  0  0  0
   -6.2991    1.9747   -0.7254 H   0  0  0  0  0  0
   -5.5602    2.9079   -2.0207 H   0  0  0  0  0  0
   -3.6897    2.6697   -3.5795 H   0  0  0  0  0  0
   -1.4824    3.5588   -4.2663 H   0  0  0  0  0  0
    0.5085    3.2161   -2.8238 H   0  0  0  0  0  0
    1.4856    2.4947   -0.7836 H   0  0  0  0  0  0
    0.4043    2.2962    0.5696 H   0  0  0  0  0  0
    1.6317    0.3670    0.4924 H   0  0  0  0  0  0
    0.8984   -0.0083   -2.3205 H   0  0  0  0  0  0
    2.4786    0.5361   -1.8216 H   0  0  0  0  0  0
    2.3270   -2.9965   -2.5491 H   0  0  0  0  0  0
    4.5187   -3.2821    0.4420 H   0  0  0  0  0  0
    2.9802   -3.7718   -0.1562 H   0  0  0  0  0  0
    5.4644   -5.5178   -0.4054 H   0  0  0  0  0  0
    5.2822   -5.9260   -2.1096 H   0  0  0  0  0  0
    3.8774   -5.9084   -1.0541 H   0  0  0  0  0  0
    6.3266   -3.8245   -2.8828 H   0  0  0  0  0  0
    5.6483   -2.2752   -2.5436 H   0  0  0  0  0  0
    6.5048   -2.4774   -0.1454 H   0  0  0  0  0  0
    7.2821   -3.9766   -0.5996 H   0  0  0  0  0  0
    8.5395   -2.6745   -2.3939 H   0  0  0  0  0  0
    7.8300   -1.2095   -1.7809 H   0  0  0  0  0  0
    9.7042   -3.1057   -0.2895 H   0  0  0  0  0  0
   10.1215   -1.5402   -0.9189 H   0  0  0  0  0  0
    8.2104   -2.0947    1.3998 H   0  0  0  0  0  0
    9.8345   -1.4882    1.5151 H   0  0  0  0  0  0
    9.1157    0.5489    0.1648 H   0  0  0  0  0  0
    7.4681   -0.0001    0.2789 H   0  0  0  0  0  0
    9.2990    0.6575    2.6430 H   0  0  0  0  0  0
    8.1181    1.7440    1.9935 H   0  0  0  0  0  0
    7.4809   -0.9576    3.2729 H   0  0  0  0  0  0
    7.3970    0.5717    4.1032 H   0  0  0  0  0  0
    5.7162   -1.0559    5.1072 H   0  0  0  0  0  0
    5.6819   -2.2874    3.8322 H   0  0  0  0  0  0
    4.2227   -1.8890    4.7164 H   0  0  0  0  0  0
    2.7785   -0.4844    3.7859 H   0  0  0  0  0  0
    3.1842    0.7581    2.6539 H   0  0  0  0  0  0
    4.2640   -0.1954    0.5529 H   0  0  0  0  0  0
   -1.9199    1.0809    0.0254 H   0  0  0  0  0  0
  1  2  1  0  0  0
  1 38  1  0  0  0
  1 39  1  0  0  0
  1 40  1  0  0  0
  2  3  1  0  0  0
  2  4  1  0  0  0
  2 41  1  0  0  0
  3 42  1  0  0  0
  3 43  1  0  0  0
  3 44  1  0  0  0
  4 34  1  0  0  0
  4  5  2  0  0  0
  5  6  1  0  0  0
  5 45  1  0  0  0
  6  7  2  0  0  0
  6 46  1  0  0  0
  7  8  1  0  0  0
  7 47  1  0  0  0
  8  9  1  0  0  0
  8 34  2  0  0  0
  9 10  1  0  0  0
  9 48  1  0  0  0
  9 49  1  0  0  0
 10 11  1  0  0  0
 10 50  1  0  0  0
 11 12  1  0  0  0
 11 51  1  0  0  0
 11 52  1  0  0  0
 12 35  1  0  0  0
 12 13  1  0  0  0
 12 14  1  0  0  0
 13 53  1  0  0  0
 14 36  1  0  0  0
 14 33  1  0  0  0
 14 15  1  0  0  0
 15 16  1  0  0  0
 15 54  1  0  0  0
 15 55  1  0  0  0
 16 37  1  0  0  0
 16 17  1  0  0  0
 16 18  1  0  0  0
 17 56  1  0  0  0
 17 57  1  0  0  0
 17 58  1  0  0  0
 18 19  1  0  0  0
 18 59  1  0  0  0
 18 60  1  0  0  0
 19 20  1  0  0  0
 19 61  1  0  0  0
 19 62  1  0  0  0
 20 21  1  0  0  0
 20 63  1  0  0  0
 20 64  1  0  0  0
 21 22  1  0  0  0
 21 65  1  0  0  0
 21 66  1  0  0  0
 22 23  1  0  0  0
 22 67  1  0  0  0
 22 68  1  0  0  0
 23 24  1  0  0  0
 23 69  1  0  0  0
 23 70  1  0  0  0
 24 25  1  0  0  0
 24 71  1  0  0  0
 24 72  1  0  0  0
 25 26  1  0  0  0
 25 73  1  0  0  0
 25 74  1  0  0  0
 26 27  2  0  0  0
 26 28  1  0  0  0
 28 29  1  0  0  0
 28 30  1  0  0  0
 29 75  1  0  0  0
 29 76  1  0  0  0
 29 77  1  0  0  0
 30 31  1  0  0  0
 30 78  1  0  0  0
 30 79  1  0  0  0
 31 32  2  0  0  0
 31 33  1  0  0  0
 33 80  1  0  0  0
 34 81  1  0  0  0
M  END
> <s_m_source_file>
BACE_32.smi

> <i_m_source_file_index>
1

> <i_lp_mmshare_version>
42013

> <i_f3d_flags>
0

> <s_epik_input>
W0NIM11bQ0hdKFtDSDNdKWMxW2NIXVtjSF1bY0hdYyhbY0hdMSlbQ0gyXVtOSF1bQ0gyXVtDQEBIXShbT0hdKVtDQEBIXTJbQ0gyXVtDQEhdKFtDSDNdKVtDSDJdW0NIMl1bQ0gyXVtDSDJdW0NIMl1bQ0gyXVtDSDJdW0NIMl1DKD1PKU4oW0NIM10pW0NIMl1DKD1PKVtOSF0y

> <s_epik_cmdline>
J2VwaWtfcHl0aG9uJywgJy1waCcsICc3LjAnLCAnLXRuJywgJzgnLCAnLW1hJywgJzIwMCcsICctaW1hZScsICc8aW5maWxlLm1hZT4nLCAnLW9tYWUnLCAnPG91dGZpbGUubWFlPic=

> <r_epik_Ionization_Penalty>
2.07395

> <r_epik_Ionization_Penalty_Charging>
0

> <r_epik_Ionization_Penalty_Neutral>
2.07395

> <r_epik_State_Penalty>
2.20813

> <r_epik_Charging_Adjusted_Penalty>
2.20813

> <i_epik_Tot_Q>
0

> <i_epik_Tot_abs_Q>
0

> <s_lp_Force_Field>
OPLS_2005

> <r_lp_Energy>
29.7195

> <b_lp_Chiralities_Consistent>
1

> <s_lp_Variant>
BACE_32.smi:1-2

$$$$
