BACE_88.smi:1
                    3D
 Structure written by MMmdl.
 80 83  0  0  1  0            999 V2000
   -5.3829    1.6743   -2.0837 C   0  0  0  0  0  0
   -4.1206    1.4050   -2.9182 C   0  0  0  0  0  0
   -4.0084   -0.0754   -3.3149 C   0  0  0  0  0  0
   -2.8619    1.8918   -2.2110 C   0  0  0  0  0  0
   -2.4830    1.3498   -0.9632 C   0  0  0  0  0  0
   -1.3142    1.7974   -0.3132 C   0  0  0  0  0  0
   -0.9120    1.1942    1.0201 C   0  0  0  0  0  0
   -0.2773   -0.1302    0.8550 N   0  3  0  0  0  0
    1.0593   -0.1077    0.2236 C   0  0  0  0  0  0
    1.6331   -1.5290    0.0866 C   0  0  1  0  0  0
    0.8855   -2.2144   -0.9010 O   0  0  0  0  0  0
    3.1369   -1.5325   -0.2878 C   0  0  2  0  0  0
    3.4511   -1.0298   -1.7157 C   0  0  0  0  0  0
    4.9413   -0.9534   -2.0066 C   0  0  0  0  0  0
    5.5933   -1.9895   -2.7102 C   0  0  0  0  0  0
    6.9751   -1.9086   -2.9914 C   0  0  0  0  0  0
    7.6481   -3.0315   -3.7716 C   0  0  0  0  0  0
    8.3485   -4.0505   -2.8813 C   0  0  0  0  0  0
    9.7082   -3.8540   -2.5566 C   0  0  0  0  0  0
   10.3878   -4.7701   -1.7354 C   0  0  0  0  0  0
    9.7110   -5.8962   -1.2383 C   0  0  0  0  0  0
    8.3594   -6.1072   -1.5665 C   0  0  0  0  0  0
    7.6600   -5.1894   -2.3929 C   0  0  0  0  0  0
    6.3315   -5.3385   -2.7474 O   0  0  0  0  0  0
    5.6062   -6.4993   -2.3337 C   0  0  0  0  0  0
    5.1092   -6.3726   -0.8865 C   0  0  0  0  0  0
    4.6727   -7.3633   -0.3024 O   0  0  0  0  0  0
    5.1736   -5.1548   -0.3273 N   0  0  0  0  0  0
    4.7540   -4.7899    1.0258 C   0  0  1  0  0  0
    5.9068   -5.0147    2.0197 C   0  0  0  0  0  0
    4.1245   -3.3869    1.0777 C   0  0  0  0  0  0
    4.0078   -2.7996    2.1532 O   0  0  0  0  0  0
    3.7163   -2.8571   -0.0874 N   0  0  0  0  0  0
    7.7042   -0.7730   -2.5616 C   0  0  0  0  0  0
    9.0365   -0.6436   -2.8307 O   0  0  0  0  0  0
    7.0555    0.2542   -1.8490 C   0  0  0  0  0  0
    5.6794    0.1653   -1.5723 C   0  0  0  0  0  0
   -0.5205    2.7973   -0.9127 C   0  0  0  0  0  0
   -0.8925    3.3409   -2.1566 C   0  0  0  0  0  0
   -2.0586    2.8897   -2.8039 C   0  0  0  0  0  0
    1.4984   -2.0466    1.0376 H   0  0  0  0  0  0
    3.6445   -0.8570    0.4038 H   0  0  0  0  0  0
    3.9446   -5.4613    1.3179 H   0  0  0  0  0  0
   -5.4791    2.7350   -1.8503 H   0  0  0  0  0  0
   -5.3699    1.1252   -1.1420 H   0  0  0  0  0  0
   -6.2804    1.3751   -2.6258 H   0  0  0  0  0  0
   -4.2224    1.9763   -3.8419 H   0  0  0  0  0  0
   -3.1422   -0.2444   -3.9554 H   0  0  0  0  0  0
   -4.8915   -0.4011   -3.8651 H   0  0  0  0  0  0
   -3.9086   -0.7205   -2.4419 H   0  0  0  0  0  0
   -3.0884    0.5826   -0.5027 H   0  0  0  0  0  0
   -0.2425    1.8655    1.5600 H   0  0  0  0  0  0
   -1.8034    1.0773    1.6372 H   0  0  0  0  0  0
   -0.1823   -0.5513    1.7681 H   0  0  0  0  0  0
    1.0076    0.3757   -0.7522 H   0  0  0  0  0  0
    1.7169    0.5000    0.8464 H   0  0  0  0  0  0
    1.0404   -1.8045   -1.7387 H   0  0  0  0  0  0
    2.9832   -1.6761   -2.4594 H   0  0  0  0  0  0
    3.0271   -0.0373   -1.8694 H   0  0  0  0  0  0
    5.0289   -2.8498   -3.0403 H   0  0  0  0  0  0
    6.9106   -3.5325   -4.3997 H   0  0  0  0  0  0
    8.3701   -2.6054   -4.4692 H   0  0  0  0  0  0
   10.2397   -2.9952   -2.9380 H   0  0  0  0  0  0
   11.4266   -4.6083   -1.4879 H   0  0  0  0  0  0
   10.2292   -6.6017   -0.6056 H   0  0  0  0  0  0
    7.8802   -6.9841   -1.1605 H   0  0  0  0  0  0
    4.7296   -6.5837   -2.9763 H   0  0  0  0  0  0
    6.1752   -7.4177   -2.4824 H   0  0  0  0  0  0
    5.5635   -4.4115   -0.8890 H   0  0  0  0  0  0
    5.6013   -4.7974    3.0437 H   0  0  0  0  0  0
    6.7609   -4.3788    1.7839 H   0  0  0  0  0  0
    6.2488   -6.0500    1.9976 H   0  0  0  0  0  0
    3.8399   -3.4200   -0.9167 H   0  0  0  0  0  0
    9.4068    0.1585   -2.4950 H   0  0  0  0  0  0
    7.6119    1.1189   -1.5173 H   0  0  0  0  0  0
    5.1912    0.9614   -1.0293 H   0  0  0  0  0  0
    0.3779    3.1468   -0.4247 H   0  0  0  0  0  0
   -0.2823    4.1046   -2.6160 H   0  0  0  0  0  0
   -2.3323    3.3148   -3.7587 H   0  0  0  0  0  0
   -0.8867   -0.7111    0.2967 H   0  0  0  0  0  0
  1  2  1  0  0  0
  1 44  1  0  0  0
  1 45  1  0  0  0
  1 46  1  0  0  0
  2  3  1  0  0  0
  2  4  1  0  0  0
  2 47  1  0  0  0
  3 48  1  0  0  0
  3 49  1  0  0  0
  3 50  1  0  0  0
  4 40  1  0  0  0
  4  5  2  0  0  0
  5  6  1  0  0  0
  5 51  1  0  0  0
  6  7  1  0  0  0
  6 38  2  0  0  0
  7  8  1  0  0  0
  7 52  1  0  0  0
  7 53  1  0  0  0
  8  9  1  0  0  0
  8 54  1  0  0  0
  8 80  1  0  0  0
  9 10  1  0  0  0
  9 55  1  0  0  0
  9 56  1  0  0  0
 10 41  1  0  0  0
 10 11  1  0  0  0
 10 12  1  0  0  0
 11 57  1  0  0  0
 12 42  1  0  0  0
 12 33  1  0  0  0
 12 13  1  0  0  0
 13 14  1  0  0  0
 13 58  1  0  0  0
 13 59  1  0  0  0
 14 37  1  0  0  0
 14 15  2  0  0  0
 15 16  1  0  0  0
 15 60  1  0  0  0
 16 17  1  0  0  0
 16 34  2  0  0  0
 17 18  1  0  0  0
 17 61  1  0  0  0
 17 62  1  0  0  0
 18 23  2  0  0  0
 18 19  1  0  0  0
 19 20  2  0  0  0
 19 63  1  0  0  0
 20 21  1  0  0  0
 20 64  1  0  0  0
 21 22  2  0  0  0
 21 65  1  0  0  0
 22 23  1  0  0  0
 22 66  1  0  0  0
 23 24  1  0  0  0
 24 25  1  0  0  0
 25 26  1  0  0  0
 25 67  1  0  0  0
 25 68  1  0  0  0
 26 27  2  0  0  0
 26 28  1  0  0  0
 28 29  1  0  0  0
 28 69  1  0  0  0
 29 43  1  0  0  0
 29 30  1  0  0  0
 29 31  1  0  0  0
 30 70  1  0  0  0
 30 71  1  0  0  0
 30 72  1  0  0  0
 31 32  2  0  0  0
 31 33  1  0  0  0
 33 73  1  0  0  0
 34 35  1  0  0  0
 34 36  1  0  0  0
 35 74  1  0  0  0
 36 37  2  0  0  0
 36 75  1  0  0  0
 37 76  1  0  0  0
 38 39  1  0  0  0
 38 77  1  0  0  0
 39 40  2  0  0  0
 39 78  1  0  0  0
 40 79  1  0  0  0
M  CHG  1   8   1
M  END
> <s_m_source_file>
BACE_88.smi

> <i_m_source_file_index>
1

> <i_lp_mmshare_version>
42013

> <i_f3d_flags>
0

> <s_epik_input>
W0NIM11bQ0hdKFtDSDNdKWMxW2NIXWMoW2NIXVtjSF1bY0hdMSlbQ0gyXVtOSF1bQ0gyXVtDQEBIXShbT0hdKVtDQEhdKFtDSDJdMilbTkhdQyg9TylbQ0BIXShbQ0gzXSlbTkhdQyg9TylbQ0gyXU9jKFtjSF1bY0hdW2NIXVtjSF0zKWMzW0NIMl1jKFtjSF1jMjQpYyhbT0hdKVtjSF1bY0hdNA==

> <s_epik_cmdline>
J2VwaWtfcHl0aG9uJywgJy1waCcsICc3LjAnLCAnLXRuJywgJzgnLCAnLW1hJywgJzIwMCcsICctaW1hZScsICc8aW5maWxlLm1hZT4nLCAnLW9tYWUnLCAnPG91dGZpbGUubWFlPic=

> <r_lp_tautomer_probability>
1

> <r_epik_Ionization_Penalty>
0.0214874

> <r_epik_Ionization_Penalty_Charging>
0.0212653

> <r_epik_Ionization_Penalty_Neutral>
0.000222102

> <r_epik_State_Penalty>
0.0170924

> <r_epik_Charging_Adjusted_Penalty>
0.0383577

> <i_epik_Tot_Q>
1

> <i_epik_Tot_abs_Q>
1

> <s_lp_Force_Field>
OPLS_2005

> <r_lp_Energy>
25.7468

> <b_lp_Chiralities_Consistent>
1

> <s_lp_Variant>
BACE_88.smi:1-1

$$$$
BACE_88.smi:1
                    3D
 Structure written by MMmdl.
 79 82  0  0  1  0            999 V2000
   -5.5515   -1.4519    2.0346 C   0  0  0  0  0  0
   -4.6684   -0.2488    2.4014 C   0  0  0  0  0  0
   -5.3708    0.6883    3.3967 C   0  0  0  0  0  0
   -4.1961    0.5001    1.1614 C   0  0  0  0  0  0
   -2.8185    0.5692    0.8608 C   0  0  0  0  0  0
   -2.3686    1.2550   -0.2874 C   0  0  0  0  0  0
   -0.8868    1.3228   -0.6023 C   0  0  0  0  0  0
   -0.3054   -0.0003   -0.8019 N   0  0  0  0  0  0
    1.1373    0.0308   -1.0180 C   0  0  0  0  0  0
    1.6945   -1.3855   -1.2521 C   0  0  1  0  0  0
    1.4481   -1.7346   -2.6013 O   0  0  0  0  0  0
    3.2130   -1.4764   -0.9613 C   0  0  2  0  0  0
    4.1041   -0.6539   -1.9206 C   0  0  0  0  0  0
    5.5835   -0.7326   -1.5777 C   0  0  0  0  0  0
    6.4461   -1.5943   -2.2903 C   0  0  0  0  0  0
    7.8226   -1.6538   -1.9777 C   0  0  0  0  0  0
    8.7369   -2.5706   -2.7826 C   0  0  0  0  0  0
    9.0394   -3.8937   -2.0894 C   0  0  0  0  0  0
   10.1950   -3.9963   -1.2848 C   0  0  0  0  0  0
   10.5071   -5.2006   -0.6304 C   0  0  0  0  0  0
    9.6657   -6.3152   -0.7821 C   0  0  0  0  0  0
    8.5182   -6.2261   -1.5912 C   0  0  0  0  0  0
    8.1907   -5.0165   -2.2579 C   0  0  0  0  0  0
    7.0797   -4.8656   -3.0675 O   0  0  0  0  0  0
    6.2112   -5.9763   -3.3035 C   0  0  0  0  0  0
    5.2354   -6.1866   -2.1375 C   0  0  0  0  0  0
    4.6334   -7.2539   -2.0290 O   0  0  0  0  0  0
    5.0841   -5.1627   -1.2843 N   0  0  0  0  0  0
    4.2020   -5.1176   -0.1181 C   0  0  1  0  0  0
    4.9158   -5.7025    1.1131 C   0  0  0  0  0  0
    3.5988   -3.7182    0.0943 C   0  0  0  0  0  0
    3.0960   -3.4189    1.1771 O   0  0  0  0  0  0
    3.6537   -2.8679   -0.9441 N   0  0  0  0  0  0
    8.3316   -0.8375   -0.9384 C   0  0  0  0  0  0
    9.6583   -0.8461   -0.6166 O   0  0  0  0  0  0
    7.4680    0.0121   -0.2198 C   0  0  0  0  0  0
    6.0992    0.0654   -0.5378 C   0  0  0  0  0  0
   -3.3031    1.8810   -1.1374 C   0  0  0  0  0  0
   -4.6783    1.8172   -0.8429 C   0  0  0  0  0  0
   -5.1237    1.1284    0.3015 C   0  0  0  0  0  0
    1.1669   -2.0889   -0.6053 H   0  0  0  0  0  0
    3.3759   -1.0759    0.0413 H   0  0  0  0  0  0
    3.3420   -5.7570   -0.3242 H   0  0  0  0  0  0
   -5.0244   -2.1349    1.3676 H   0  0  0  0  0  0
   -6.4693   -1.1409    1.5350 H   0  0  0  0  0  0
   -5.8350   -2.0151    2.9241 H   0  0  0  0  0  0
   -3.7850   -0.6436    2.9051 H   0  0  0  0  0  0
   -4.7163    1.5101    3.6886 H   0  0  0  0  0  0
   -5.6528    0.1544    4.3044 H   0  0  0  0  0  0
   -6.2781    1.1193    2.9731 H   0  0  0  0  0  0
   -2.0987    0.0919    1.5103 H   0  0  0  0  0  0
   -0.7297    1.9386   -1.4888 H   0  0  0  0  0  0
   -0.3890    1.8315    0.2242 H   0  0  0  0  0  0
   -0.7447   -0.4405   -1.6043 H   0  0  0  0  0  0
    1.3883    0.6831   -1.8557 H   0  0  0  0  0  0
    1.6129    0.4642   -0.1373 H   0  0  0  0  0  0
    1.7143   -2.6322   -2.7302 H   0  0  0  0  0  0
    3.9676   -0.9887   -2.9497 H   0  0  0  0  0  0
    3.8055    0.3946   -1.9031 H   0  0  0  0  0  0
    6.0506   -2.2089   -3.0859 H   0  0  0  0  0  0
    8.2954   -2.7604   -3.7616 H   0  0  0  0  0  0
    9.6729   -2.0508   -2.9901 H   0  0  0  0  0  0
   10.8519   -3.1478   -1.1660 H   0  0  0  0  0  0
   11.3911   -5.2688   -0.0136 H   0  0  0  0  0  0
    9.9013   -7.2418   -0.2796 H   0  0  0  0  0  0
    7.9016   -7.1070   -1.6771 H   0  0  0  0  0  0
    5.6205   -5.7470   -4.1905 H   0  0  0  0  0  0
    6.7596   -6.8894   -3.5371 H   0  0  0  0  0  0
    5.6370   -4.3350   -1.4566 H   0  0  0  0  0  0
    4.2593   -5.7261    1.9835 H   0  0  0  0  0  0
    5.7963   -5.1143    1.3751 H   0  0  0  0  0  0
    5.2440   -6.7259    0.9277 H   0  0  0  0  0  0
    4.0744   -3.2099   -1.7958 H   0  0  0  0  0  0
    9.8698   -0.2621    0.0956 H   0  0  0  0  0  0
    7.8553    0.6332    0.5746 H   0  0  0  0  0  0
    5.4463    0.7239    0.0163 H   0  0  0  0  0  0
   -2.9698    2.4109   -2.0178 H   0  0  0  0  0  0
   -5.3925    2.2970   -1.4958 H   0  0  0  0  0  0
   -6.1813    1.0849    0.5159 H   0  0  0  0  0  0
  1  2  1  0  0  0
  1 44  1  0  0  0
  1 45  1  0  0  0
  1 46  1  0  0  0
  2  3  1  0  0  0
  2  4  1  0  0  0
  2 47  1  0  0  0
  3 48  1  0  0  0
  3 49  1  0  0  0
  3 50  1  0  0  0
  4 40  1  0  0  0
  4  5  2  0  0  0
  5  6  1  0  0  0
  5 51  1  0  0  0
  6  7  1  0  0  0
  6 38  2  0  0  0
  7  8  1  0  0  0
  7 52  1  0  0  0
  7 53  1  0  0  0
  8  9  1  0  0  0
  8 54  1  0  0  0
  9 10  1  0  0  0
  9 55  1  0  0  0
  9 56  1  0  0  0
 10 41  1  0  0  0
 10 11  1  0  0  0
 10 12  1  0  0  0
 11 57  1  0  0  0
 12 42  1  0  0  0
 12 33  1  0  0  0
 12 13  1  0  0  0
 13 14  1  0  0  0
 13 58  1  0  0  0
 13 59  1  0  0  0
 14 37  1  0  0  0
 14 15  2  0  0  0
 15 16  1  0  0  0
 15 60  1  0  0  0
 16 17  1  0  0  0
 16 34  2  0  0  0
 17 18  1  0  0  0
 17 61  1  0  0  0
 17 62  1  0  0  0
 18 23  2  0  0  0
 18 19  1  0  0  0
 19 20  2  0  0  0
 19 63  1  0  0  0
 20 21  1  0  0  0
 20 64  1  0  0  0
 21 22  2  0  0  0
 21 65  1  0  0  0
 22 23  1  0  0  0
 22 66  1  0  0  0
 23 24  1  0  0  0
 24 25  1  0  0  0
 25 26  1  0  0  0
 25 67  1  0  0  0
 25 68  1  0  0  0
 26 27  2  0  0  0
 26 28  1  0  0  0
 28 29  1  0  0  0
 28 69  1  0  0  0
 29 43  1  0  0  0
 29 30  1  0  0  0
 29 31  1  0  0  0
 30 70  1  0  0  0
 30 71  1  0  0  0
 30 72  1  0  0  0
 31 32  2  0  0  0
 31 33  1  0  0  0
 33 73  1  0  0  0
 34 35  1  0  0  0
 34 36  1  0  0  0
 35 74  1  0  0  0
 36 37  2  0  0  0
 36 75  1  0  0  0
 37 76  1  0  0  0
 38 39  1  0  0  0
 38 77  1  0  0  0
 39 40  2  0  0  0
 39 78  1  0  0  0
 40 79  1  0  0  0
M  END
> <s_m_source_file>
BACE_88.smi

> <i_m_source_file_index>
1

> <i_lp_mmshare_version>
42013

> <i_f3d_flags>
0

> <s_epik_input>
W0NIM11bQ0hdKFtDSDNdKWMxW2NIXWMoW2NIXVtjSF1bY0hdMSlbQ0gyXVtOSF1bQ0gyXVtDQEBIXShbT0hdKVtDQEhdKFtDSDJdMilbTkhdQyg9TylbQ0BIXShbQ0gzXSlbTkhdQyg9TylbQ0gyXU9jKFtjSF1bY0hdW2NIXVtjSF0zKWMzW0NIMl1jKFtjSF1jMjQpYyhbT0hdKVtjSF1bY0hdNA==

> <s_epik_cmdline>
J2VwaWtfcHl0aG9uJywgJy1waCcsICc3LjAnLCAnLXRuJywgJzgnLCAnLW1hJywgJzIwMCcsICctaW1hZScsICc8aW5maWxlLm1hZT4nLCAnLW9tYWUnLCAnPG91dGZpbGUubWFlPic=

> <r_lp_tautomer_probability>
1

> <r_epik_Ionization_Penalty>
1.98214

> <r_epik_Ionization_Penalty_Charging>
0

> <r_epik_Ionization_Penalty_Neutral>
1.98214

> <r_epik_State_Penalty>
2.1093

> <r_epik_Charging_Adjusted_Penalty>
2.1093

> <i_epik_Tot_Q>
0

> <i_epik_Tot_abs_Q>
0

> <s_lp_Force_Field>
OPLS_2005

> <r_lp_Energy>
31.8003

> <b_lp_Chiralities_Consistent>
1

> <s_lp_Variant>
BACE_88.smi:1-2

$$$$
