BACE_12.smi:1
                    3D
 Structure written by MMmdl.
 79 82  0  0  1  0            999 V2000
   -2.0135   -2.4649    7.0369 C   0  0  0  0  0  0
   -1.7952   -2.1296    5.6698 O   0  0  0  0  0  0
   -2.7229   -1.3251    5.0409 C   0  0  0  0  0  0
   -2.5214   -0.9874    3.6876 C   0  0  0  0  0  0
   -3.4878   -0.1883    3.0399 C   0  0  0  0  0  0
   -4.6116    0.2439    3.7750 C   0  0  0  0  0  0
   -4.7100   -0.1097    5.1396 C   0  0  0  0  0  0
   -5.7511    0.3326    5.9664 N   0  0  0  0  0  0
   -6.3343    1.6576    5.7792 C   0  0  0  0  0  0
   -5.5035    2.7855    6.4296 C   0  0  0  0  0  0
   -4.2695    3.2414    5.6281 C   0  0  0  0  0  0
   -4.6182    4.0723    4.3806 C   0  0  0  0  0  0
   -3.4496    4.1912    3.4197 C   0  0  0  0  0  0
   -2.3060    4.9407    3.7642 C   0  0  0  0  0  0
   -1.2155    5.0125    2.8750 C   0  0  0  0  0  0
   -1.2600    4.3305    1.6431 C   0  0  0  0  0  0
   -2.4002    3.5786    1.2921 C   0  0  0  0  0  0
   -2.4521    2.8170   -0.0263 C   0  0  0  0  0  0
   -1.8381    1.3871    0.0113 C   0  0  2  0  0  0
   -2.1395    0.7031    1.2719 N   0  0  0  0  0  0
   -3.3407    0.2013    1.6022 C   0  0  0  0  0  0
   -4.2997    0.1546    0.8321 O   0  0  0  0  0  0
   -0.3146    1.3856   -0.2768 C   0  0  2  0  0  0
   -0.1248    1.7848   -1.6226 O   0  0  0  0  0  0
    0.3557    0.0053   -0.1099 C   0  0  0  0  0  0
    1.7893    0.0583   -0.4693 N   0  3  0  0  0  0
    2.5112   -1.2242   -0.3511 C   0  0  0  0  0  0
    2.9777   -1.4732    1.0704 C   0  0  0  0  0  0
    4.2063   -0.9372    1.5086 C   0  0  0  0  0  0
    4.6528   -1.1760    2.8213 C   0  0  0  0  0  0
    3.8732   -1.9506    3.7003 C   0  0  0  0  0  0
    2.6374   -2.4860    3.2746 C   0  0  0  0  0  0
    2.1958   -2.2448    1.9555 C   0  0  0  0  0  0
    1.7907   -3.3285    4.2196 C   0  0  0  0  0  0
    1.4657   -2.5804    5.5217 C   0  0  0  0  0  0
    2.4506   -4.6870    4.4992 C   0  0  0  0  0  0
   -3.4977    3.5288    2.1769 C   0  0  0  0  0  0
   -3.7936   -0.8893    5.7496 N   0  0  0  0  0  0
   -2.2998    0.8081   -0.7916 H   0  0  0  0  0  0
    0.1859    2.1033    0.3737 H   0  0  0  0  0  0
   -1.2185   -3.1238    7.3840 H   0  0  0  0  0  0
   -2.9583   -2.9928    7.1743 H   0  0  0  0  0  0
   -2.0048   -1.5758    7.6691 H   0  0  0  0  0  0
   -1.6505   -1.3502    3.1608 H   0  0  0  0  0  0
   -5.3618    0.8553    3.2965 H   0  0  0  0  0  0
   -5.7194    0.0043    6.9208 H   0  0  0  0  0  0
   -6.5481    1.8664    4.7328 H   0  0  0  0  0  0
   -7.3079    1.6287    6.2690 H   0  0  0  0  0  0
   -6.1479    3.6508    6.5872 H   0  0  0  0  0  0
   -5.1917    2.4690    7.4258 H   0  0  0  0  0  0
   -3.6197    3.8346    6.2721 H   0  0  0  0  0  0
   -3.6779    2.3725    5.3449 H   0  0  0  0  0  0
   -5.4581    3.6233    3.8508 H   0  0  0  0  0  0
   -4.9450    5.0705    4.6742 H   0  0  0  0  0  0
   -2.2599    5.4560    4.7123 H   0  0  0  0  0  0
   -0.3398    5.5857    3.1421 H   0  0  0  0  0  0
   -0.4158    4.3842    0.9717 H   0  0  0  0  0  0
   -3.5021    2.7333   -0.3105 H   0  0  0  0  0  0
   -1.9975    3.4243   -0.8090 H   0  0  0  0  0  0
   -1.4280    0.7234    1.9881 H   0  0  0  0  0  0
   -0.5135    2.6385   -1.7421 H   0  0  0  0  0  0
    0.2706   -0.3337    0.9228 H   0  0  0  0  0  0
   -0.1470   -0.7351   -0.7341 H   0  0  0  0  0  0
    1.8396    0.3559   -1.4335 H   0  0  0  0  0  0
    1.8958   -2.0504   -0.7102 H   0  0  0  0  0  0
    3.3857   -1.1847   -1.0017 H   0  0  0  0  0  0
    4.8137   -0.3464    0.8386 H   0  0  0  0  0  0
    5.5965   -0.7685    3.1533 H   0  0  0  0  0  0
    4.2318   -2.1332    4.7026 H   0  0  0  0  0  0
    1.2555   -2.6562    1.6180 H   0  0  0  0  0  0
    0.8396   -3.5278    3.7238 H   0  0  0  0  0  0
    0.9493   -1.6420    5.3170 H   0  0  0  0  0  0
    2.3630   -2.3500    6.0960 H   0  0  0  0  0  0
    0.8192   -3.1816    6.1598 H   0  0  0  0  0  0
    2.6190   -5.2388    3.5740 H   0  0  0  0  0  0
    1.8209   -5.3047    5.1402 H   0  0  0  0  0  0
    3.4136   -4.5695    4.9971 H   0  0  0  0  0  0
   -4.3732    2.9544    1.9108 H   0  0  0  0  0  0
    2.2542    0.7485    0.1029 H   0  0  0  0  0  0
  1  2  1  0  0  0
  1 41  1  0  0  0
  1 42  1  0  0  0
  1 43  1  0  0  0
  2  3  1  0  0  0
  3 38  1  0  0  0
  3  4  2  0  0  0
  4  5  1  0  0  0
  4 44  1  0  0  0
  5 21  1  0  0  0
  5  6  2  0  0  0
  6  7  1  0  0  0
  6 45  1  0  0  0
  7  8  1  0  0  0
  7 38  2  0  0  0
  8  9  1  0  0  0
  8 46  1  0  0  0
  9 10  1  0  0  0
  9 47  1  0  0  0
  9 48  1  0  0  0
 10 11  1  0  0  0
 10 49  1  0  0  0
 10 50  1  0  0  0
 11 12  1  0  0  0
 11 51  1  0  0  0
 11 52  1  0  0  0
 12 13  1  0  0  0
 12 53  1  0  0  0
 12 54  1  0  0  0
 13 37  1  0  0  0
 13 14  2  0  0  0
 14 15  1  0  0  0
 14 55  1  0  0  0
 15 16  2  0  0  0
 15 56  1  0  0  0
 16 17  1  0  0  0
 16 57  1  0  0  0
 17 18  1  0  0  0
 17 37  2  0  0  0
 18 19  1  0  0  0
 18 58  1  0  0  0
 18 59  1  0  0  0
 19 39  1  0  0  0
 19 20  1  0  0  0
 19 23  1  0  0  0
 20 21  1  0  0  0
 20 60  1  0  0  0
 21 22  2  0  0  0
 23 40  1  0  0  0
 23 24  1  0  0  0
 23 25  1  0  0  0
 24 61  1  0  0  0
 25 26  1  0  0  0
 25 62  1  0  0  0
 25 63  1  0  0  0
 26 27  1  0  0  0
 26 64  1  0  0  0
 26 79  1  0  0  0
 27 28  1  0  0  0
 27 65  1  0  0  0
 27 66  1  0  0  0
 28 33  1  0  0  0
 28 29  2  0  0  0
 29 30  1  0  0  0
 29 67  1  0  0  0
 30 31  2  0  0  0
 30 68  1  0  0  0
 31 32  1  0  0  0
 31 69  1  0  0  0
 32 33  2  0  0  0
 32 34  1  0  0  0
 33 70  1  0  0  0
 34 35  1  0  0  0
 34 36  1  0  0  0
 34 71  1  0  0  0
 35 72  1  0  0  0
 35 73  1  0  0  0
 35 74  1  0  0  0
 36 75  1  0  0  0
 36 76  1  0  0  0
 36 77  1  0  0  0
 37 78  1  0  0  0
M  CHG  1  26   1
M  END
> <s_m_source_file>
BACE_12.smi

> <i_m_source_file_index>
1

> <i_lp_mmshare_version>
42013

> <i_f3d_flags>
0

> <s_epik_input>
W0NIM11PYyhbY0hdYzEyKW5jKFtjSF0xKVtOSF1bQ0gyXVtDSDJdW0NIMl1bQ0gyXWMzW2NIXVtjSF1bY0hdYyhbY0hdMylbQ0gyXVtDQEhdKFtOSF1DMj1PKVtDQEhdKFtPSF0pW0NIMl1bTkhdW0NIMl1jNFtjSF1bY0hdW2NIXWMoW2NIXTQpW0NIXShbQ0gzXSlbQ0gzXQ==

> <s_epik_cmdline>
J2VwaWtfcHl0aG9uJywgJy1waCcsICc3LjAnLCAnLXRuJywgJzgnLCAnLW1hJywgJzIwMCcsICctaW1hZScsICc8aW5maWxlLm1hZT4nLCAnLW9tYWUnLCAnPG91dGZpbGUubWFlPic=

> <r_lp_tautomer_probability>
1

> <r_epik_Ionization_Penalty>
0.0200825

> <r_epik_Ionization_Penalty_Charging>
0.0200546

> <r_epik_Ionization_Penalty_Neutral>
2.78717e-05

> <r_epik_State_Penalty>
0.0160525

> <r_epik_Charging_Adjusted_Penalty>
0.0361071

> <i_epik_Tot_Q>
1

> <i_epik_Tot_abs_Q>
1

> <s_lp_Force_Field>
OPLS_2005

> <r_lp_Energy>
20.6554

> <b_lp_Chiralities_Consistent>
1

> <s_lp_Variant>
BACE_12.smi:1-1

$$$$
BACE_12.smi:1
                    3D
 Structure written by MMmdl.
 78 81  0  0  1  0            999 V2000
   -4.4432   -4.9838    3.5718 C   0  0  0  0  0  0
   -4.3484   -4.0180    4.6083 O   0  0  0  0  0  0
   -4.1245   -2.7070    4.2489 C   0  0  0  0  0  0
   -3.9758   -2.2544    2.9154 C   0  0  0  0  0  0
   -3.7349   -0.8835    2.6837 C   0  0  0  0  0  0
   -3.6888   -0.0125    3.7961 C   0  0  0  0  0  0
   -3.8561   -0.5531    5.0910 C   0  0  0  0  0  0
   -3.8032    0.2351    6.2475 N   0  0  0  0  0  0
   -4.5253    1.5018    6.2635 C   0  0  0  0  0  0
   -3.6365    2.6720    6.7246 C   0  0  0  0  0  0
   -2.6995    3.2045    5.6287 C   0  0  0  0  0  0
   -3.4162    4.1119    4.6132 C   0  0  0  0  0  0
   -2.6458    4.2319    3.3141 C   0  0  0  0  0  0
   -1.5025    5.0521    3.2261 C   0  0  0  0  0  0
   -0.7721    5.1141    2.0228 C   0  0  0  0  0  0
   -1.1750    4.3481    0.9109 C   0  0  0  0  0  0
   -2.3175    3.5250    0.9950 C   0  0  0  0  0  0
   -2.7442    2.6678   -0.1874 C   0  0  0  0  0  0
   -2.2305    1.2054   -0.1361 C   0  0  2  0  0  0
   -2.6322    0.5793    1.1270 N   0  0  0  0  0  0
   -3.5626   -0.3767    1.2812 C   0  0  0  0  0  0
   -4.1987   -0.8703    0.3500 O   0  0  0  0  0  0
   -0.6956    1.0823   -0.3206 C   0  0  2  0  0  0
   -0.3452    1.6322   -1.5766 O   0  0  0  0  0  0
   -0.1897   -0.3760   -0.3144 C   0  0  0  0  0  0
    1.2450   -0.4337   -0.0557 N   0  0  0  0  0  0
    1.7763   -1.7919   -0.0695 C   0  0  0  0  0  0
    3.2495   -1.8287    0.2830 C   0  0  0  0  0  0
    3.6707   -1.5122    1.5910 C   0  0  0  0  0  0
    5.0391   -1.5434    1.9185 C   0  0  0  0  0  0
    5.9903   -1.8915    0.9405 C   0  0  0  0  0  0
    5.5790   -2.2118   -0.3725 C   0  0  0  0  0  0
    4.2047   -2.1779   -0.6945 C   0  0  0  0  0  0
    6.6018   -2.5915   -1.4363 C   0  0  0  0  0  0
    7.3622   -3.8727   -1.0594 C   0  0  0  0  0  0
    7.5614   -1.4301   -1.7390 C   0  0  0  0  0  0
   -3.0602    3.4889    2.1917 C   0  0  0  0  0  0
   -4.0553   -1.8701    5.3061 N   0  0  0  0  0  0
   -2.6946    0.6730   -0.9684 H   0  0  0  0  0  0
   -0.1928    1.6481    0.4653 H   0  0  0  0  0  0
   -4.6258   -5.9649    4.0100 H   0  0  0  0  0  0
   -3.5167   -5.0457    2.9991 H   0  0  0  0  0  0
   -5.2718   -4.7644    2.8971 H   0  0  0  0  0  0
   -4.0280   -2.9334    2.0775 H   0  0  0  0  0  0
   -3.5185    1.0442    3.6609 H   0  0  0  0  0  0
   -3.8616   -0.2866    7.1103 H   0  0  0  0  0  0
   -4.9981    1.7175    5.3056 H   0  0  0  0  0  0
   -5.3423    1.3839    6.9757 H   0  0  0  0  0  0
   -4.2672    3.4894    7.0761 H   0  0  0  0  0  0
   -3.0501    2.3596    7.5897 H   0  0  0  0  0  0
   -1.8774    3.7612    6.0796 H   0  0  0  0  0  0
   -2.2378    2.3576    5.1203 H   0  0  0  0  0  0
   -4.4095    3.7224    4.3890 H   0  0  0  0  0  0
   -3.5713    5.1040    5.0387 H   0  0  0  0  0  0
   -1.1787    5.6264    4.0817 H   0  0  0  0  0  0
    0.1056    5.7397    1.9564 H   0  0  0  0  0  0
   -0.5994    4.3865   -0.0026 H   0  0  0  0  0  0
   -3.8345    2.6594   -0.2193 H   0  0  0  0  0  0
   -2.4349    3.1533   -1.1134 H   0  0  0  0  0  0
   -2.1531    0.8985    1.9569 H   0  0  0  0  0  0
   -0.7704    1.1287   -2.2539 H   0  0  0  0  0  0
   -0.6978   -0.9491    0.4607 H   0  0  0  0  0  0
   -0.4329   -0.8642   -1.2593 H   0  0  0  0  0  0
    1.7272    0.1230   -0.7545 H   0  0  0  0  0  0
    1.2392   -2.4131    0.6485 H   0  0  0  0  0  0
    1.6247   -2.2456   -1.0498 H   0  0  0  0  0  0
    2.9445   -1.2432    2.3444 H   0  0  0  0  0  0
    5.3595   -1.3000    2.9208 H   0  0  0  0  0  0
    7.0374   -1.9114    1.2039 H   0  0  0  0  0  0
    3.8795   -2.4203   -1.6959 H   0  0  0  0  0  0
    6.0577   -2.8032   -2.3577 H   0  0  0  0  0  0
    6.6735   -4.7019   -0.8943 H   0  0  0  0  0  0
    7.9491   -3.7405   -0.1502 H   0  0  0  0  0  0
    8.0480   -4.1691   -1.8535 H   0  0  0  0  0  0
    7.0132   -0.5417   -2.0545 H   0  0  0  0  0  0
    8.2518   -1.6922   -2.5411 H   0  0  0  0  0  0
    8.1572   -1.1616   -0.8663 H   0  0  0  0  0  0
   -3.9374    2.8616    2.2559 H   0  0  0  0  0  0
  1  2  1  0  0  0
  1 41  1  0  0  0
  1 42  1  0  0  0
  1 43  1  0  0  0
  2  3  1  0  0  0
  3 38  1  0  0  0
  3  4  2  0  0  0
  4  5  1  0  0  0
  4 44  1  0  0  0
  5 21  1  0  0  0
  5  6  2  0  0  0
  6  7  1  0  0  0
  6 45  1  0  0  0
  7  8  1  0  0  0
  7 38  2  0  0  0
  8  9  1  0  0  0
  8 46  1  0  0  0
  9 10  1  0  0  0
  9 47  1  0  0  0
  9 48  1  0  0  0
 10 11  1  0  0  0
 10 49  1  0  0  0
 10 50  1  0  0  0
 11 12  1  0  0  0
 11 51  1  0  0  0
 11 52  1  0  0  0
 12 13  1  0  0  0
 12 53  1  0  0  0
 12 54  1  0  0  0
 13 37  1  0  0  0
 13 14  2  0  0  0
 14 15  1  0  0  0
 14 55  1  0  0  0
 15 16  2  0  0  0
 15 56  1  0  0  0
 16 17  1  0  0  0
 16 57  1  0  0  0
 17 18  1  0  0  0
 17 37  2  0  0  0
 18 19  1  0  0  0
 18 58  1  0  0  0
 18 59  1  0  0  0
 19 39  1  0  0  0
 19 20  1  0  0  0
 19 23  1  0  0  0
 20 21  1  0  0  0
 20 60  1  0  0  0
 21 22  2  0  0  0
 23 40  1  0  0  0
 23 24  1  0  0  0
 23 25  1  0  0  0
 24 61  1  0  0  0
 25 26  1  0  0  0
 25 62  1  0  0  0
 25 63  1  0  0  0
 26 27  1  0  0  0
 26 64  1  0  0  0
 27 28  1  0  0  0
 27 65  1  0  0  0
 27 66  1  0  0  0
 28 33  1  0  0  0
 28 29  2  0  0  0
 29 30  1  0  0  0
 29 67  1  0  0  0
 30 31  2  0  0  0
 30 68  1  0  0  0
 31 32  1  0  0  0
 31 69  1  0  0  0
 32 33  2  0  0  0
 32 34  1  0  0  0
 33 70  1  0  0  0
 34 35  1  0  0  0
 34 36  1  0  0  0
 34 71  1  0  0  0
 35 72  1  0  0  0
 35 73  1  0  0  0
 35 74  1  0  0  0
 36 75  1  0  0  0
 36 76  1  0  0  0
 36 77  1  0  0  0
 37 78  1  0  0  0
M  END
> <s_m_source_file>
BACE_12.smi

> <i_m_source_file_index>
1

> <i_lp_mmshare_version>
42013

> <i_f3d_flags>
0

> <s_epik_input>
W0NIM11PYyhbY0hdYzEyKW5jKFtjSF0xKVtOSF1bQ0gyXVtDSDJdW0NIMl1bQ0gyXWMzW2NIXVtjSF1bY0hdYyhbY0hdMylbQ0gyXVtDQEhdKFtOSF1DMj1PKVtDQEhdKFtPSF0pW0NIMl1bTkhdW0NIMl1jNFtjSF1bY0hdW2NIXWMoW2NIXTQpW0NIXShbQ0gzXSlbQ0gzXQ==

> <s_epik_cmdline>
J2VwaWtfcHl0aG9uJywgJy1waCcsICc3LjAnLCAnLXRuJywgJzgnLCAnLW1hJywgJzIwMCcsICctaW1hZScsICc8aW5maWxlLm1hZT4nLCAnLW9tYWUnLCAnPG91dGZpbGUubWFlPic=

> <r_lp_tautomer_probability>
1

> <r_epik_Ionization_Penalty>
2.01611

> <r_epik_Ionization_Penalty_Charging>
0

> <r_epik_Ionization_Penalty_Neutral>
2.01611

> <r_epik_State_Penalty>
2.14597

> <r_epik_Charging_Adjusted_Penalty>
2.14597

> <i_epik_Tot_Q>
0

> <i_epik_Tot_abs_Q>
0

> <s_lp_Force_Field>
OPLS_2005

> <r_lp_Energy>
34.3281

> <b_lp_Chiralities_Consistent>
1

> <s_lp_Variant>
BACE_12.smi:1-2

$$$$
