BACE_59.smi:1
                    3D
 Structure written by MMmdl.
 92 96  0  0  1  0            999 V2000
   -0.2977    1.9256   -4.5554 C   0  0  0  0  0  0
   -0.9866    1.8680   -3.1820 C   0  0  2  0  0  0
   -2.2930    2.6957   -3.2192 C   0  0  0  0  0  0
   -3.1641    2.5780   -1.9591 C   0  0  0  0  0  0
   -4.5395    3.2482   -2.1072 C   0  0  0  0  0  0
   -5.3740    3.1836   -0.8172 C   0  0  0  0  0  0
   -5.9982    1.7992   -0.5524 C   0  0  0  0  0  0
   -6.5875    1.6406    0.8630 C   0  0  0  0  0  0
   -5.5960    1.0570    1.8853 C   0  0  0  0  0  0
   -4.4887    1.9614    2.1589 N   0  0  0  0  0  0
   -3.2307    1.4026    2.4172 C   0  0  0  0  0  0
   -3.0752    0.1939    3.1317 C   0  0  0  0  0  0
   -1.7900   -0.3417    3.3680 C   0  0  0  0  0  0
   -0.6536    0.3408    2.8811 C   0  0  0  0  0  0
   -0.8016    1.5411    2.1557 C   0  0  0  0  0  0
   -2.0891    2.0755    1.9417 C   0  0  0  0  0  0
    0.4068    2.2538    1.6300 C   0  0  0  0  0  0
    1.1931    2.7856    2.4101 O   0  0  0  0  0  0
    0.5970    2.2805    0.2967 N   0  0  0  0  0  0
   -0.1258    1.5292   -0.7377 C   0  0  1  0  0  0
   -0.0044    2.3116   -2.0660 C   0  0  0  0  0  0
    0.3857    0.0579   -0.8731 C   0  0  2  0  0  0
   -0.5955   -0.7994   -0.3216 O   0  0  0  0  0  0
    1.7397   -0.2418   -0.1996 C   0  0  0  0  0  0
    2.2583   -1.5566   -0.5710 N   0  0  0  0  0  0
    3.5116   -1.8897    0.1066 C   0  0  0  0  0  0
    4.7738   -1.1777   -0.3340 C   0  0  0  0  0  0
    4.5635   -2.6304   -0.6882 C   0  0  0  0  0  0
    3.3049   -2.2254    1.5570 C   0  0  0  0  0  0
    3.4856   -1.2588    2.5701 C   0  0  0  0  0  0
    3.2463   -1.6125    3.9198 C   0  0  0  0  0  0
    2.8492   -2.9448    4.1761 C   0  0  0  0  0  0
    2.6873   -3.8348    3.0971 C   0  0  0  0  0  0
    2.9019   -3.4888    1.8119 N   0  0  0  0  0  0
    3.4075   -0.6172    5.0826 C   0  0  0  0  0  0
    2.0867   -0.5151    5.8743 C   0  0  0  0  0  0
    3.7743    0.8053    4.6041 C   0  0  0  0  0  0
    4.5266   -1.1070    6.0230 C   0  0  0  0  0  0
   -1.6492   -1.5970    4.1001 C   0  0  0  0  0  0
   -2.6019   -2.3250    4.6846 N   0  0  0  0  0  0
   -1.9455   -3.4156    5.2338 C   0  0  0  0  0  0
   -0.6119   -3.2928    4.9496 C   0  0  0  0  0  0
   -0.4093   -2.1459    4.2307 O   0  0  0  0  0  0
   -1.2624    0.8258   -3.0208 H   0  0  0  0  0  0
   -1.1814    1.5126   -0.4814 H   0  0  0  0  0  0
    0.4659   -0.2037   -1.9286 H   0  0  0  0  0  0
    0.0151    2.9412   -4.8002 H   0  0  0  0  0  0
   -0.9640    1.5824   -5.3473 H   0  0  0  0  0  0
    0.5875    1.2892   -4.5791 H   0  0  0  0  0  0
   -2.0615    3.7457   -3.4035 H   0  0  0  0  0  0
   -2.8856    2.3668   -4.0739 H   0  0  0  0  0  0
   -3.2917    1.5248   -1.7099 H   0  0  0  0  0  0
   -2.6467    3.0417   -1.1198 H   0  0  0  0  0  0
   -4.3887    4.2953   -2.3725 H   0  0  0  0  0  0
   -5.0944    2.8012   -2.9328 H   0  0  0  0  0  0
   -4.7524    3.4993    0.0193 H   0  0  0  0  0  0
   -6.1785    3.9175   -0.8772 H   0  0  0  0  0  0
   -6.7898    1.6416   -1.2859 H   0  0  0  0  0  0
   -5.2749    1.0033   -0.7285 H   0  0  0  0  0  0
   -7.0007    2.5856    1.2180 H   0  0  0  0  0  0
   -7.4322    0.9537    0.8019 H   0  0  0  0  0  0
   -6.1130    0.8569    2.8244 H   0  0  0  0  0  0
   -5.2262    0.0986    1.5180 H   0  0  0  0  0  0
   -4.4928    2.8263    1.6376 H   0  0  0  0  0  0
   -3.9454   -0.3247    3.5071 H   0  0  0  0  0  0
    0.3357   -0.0619    3.0447 H   0  0  0  0  0  0
   -2.2020    3.0011    1.3951 H   0  0  0  0  0  0
    1.3994    2.8004   -0.0279 H   0  0  0  0  0  0
    1.0250    2.2121   -2.4143 H   0  0  0  0  0  0
   -0.1389    3.3795   -1.8860 H   0  0  0  0  0  0
   -1.4066   -0.6676   -0.7882 H   0  0  0  0  0  0
    2.4638    0.5204   -0.4897 H   0  0  0  0  0  0
    1.6291   -0.1747    0.8818 H   0  0  0  0  0  0
    1.5602   -2.2468   -0.3108 H   0  0  0  0  0  0
    4.7076   -0.4640   -1.1529 H   0  0  0  0  0  0
    5.5272   -0.9547    0.4187 H   0  0  0  0  0  0
    5.1745   -3.3644   -0.1662 H   0  0  0  0  0  0
    4.3575   -2.8535   -1.7333 H   0  0  0  0  0  0
    3.7924   -0.2645    2.2853 H   0  0  0  0  0  0
    2.6604   -3.2869    5.1824 H   0  0  0  0  0  0
    2.3724   -4.8527    3.2728 H   0  0  0  0  0  0
    2.1736    0.1921    6.6997 H   0  0  0  0  0  0
    1.7877   -1.4707    6.3046 H   0  0  0  0  0  0
    1.2706   -0.1720    5.2387 H   0  0  0  0  0  0
    3.0111    1.2150    3.9413 H   0  0  0  0  0  0
    4.7271    0.8202    4.0738 H   0  0  0  0  0  0
    3.8688    1.4930    5.4452 H   0  0  0  0  0  0
    4.6792   -0.4156    6.8525 H   0  0  0  0  0  0
    5.4754   -1.1973    5.4930 H   0  0  0  0  0  0
    4.2981   -2.0816    6.4550 H   0  0  0  0  0  0
   -2.4734   -4.1854    5.7770 H   0  0  0  0  0  0
    0.2585   -3.8921    5.1696 H   0  0  0  0  0  0
  1  2  1  0  0  0
  1 47  1  0  0  0
  1 48  1  0  0  0
  1 49  1  0  0  0
  2 44  1  0  0  0
  2 21  1  0  0  0
  2  3  1  0  0  0
  3  4  1  0  0  0
  3 50  1  0  0  0
  3 51  1  0  0  0
  4  5  1  0  0  0
  4 52  1  0  0  0
  4 53  1  0  0  0
  5  6  1  0  0  0
  5 54  1  0  0  0
  5 55  1  0  0  0
  6  7  1  0  0  0
  6 56  1  0  0  0
  6 57  1  0  0  0
  7  8  1  0  0  0
  7 58  1  0  0  0
  7 59  1  0  0  0
  8  9  1  0  0  0
  8 60  1  0  0  0
  8 61  1  0  0  0
  9 10  1  0  0  0
  9 62  1  0  0  0
  9 63  1  0  0  0
 10 11  1  0  0  0
 10 64  1  0  0  0
 11 16  1  0  0  0
 11 12  2  0  0  0
 12 13  1  0  0  0
 12 65  1  0  0  0
 13 14  2  0  0  0
 13 39  1  0  0  0
 14 15  1  0  0  0
 14 66  1  0  0  0
 15 16  2  0  0  0
 15 17  1  0  0  0
 16 67  1  0  0  0
 17 18  2  0  0  0
 17 19  1  0  0  0
 19 20  1  0  0  0
 19 68  1  0  0  0
 20 45  1  0  0  0
 20 21  1  0  0  0
 20 22  1  0  0  0
 21 69  1  0  0  0
 21 70  1  0  0  0
 22 46  1  0  0  0
 22 23  1  0  0  0
 22 24  1  0  0  0
 23 71  1  0  0  0
 24 25  1  0  0  0
 24 72  1  0  0  0
 24 73  1  0  0  0
 25 26  1  0  0  0
 25 74  1  0  0  0
 26 28  1  0  0  0
 26 27  1  0  0  0
 26 29  1  0  0  0
 27 28  1  0  0  0
 27 75  1  0  0  0
 27 76  1  0  0  0
 28 77  1  0  0  0
 28 78  1  0  0  0
 29 34  1  0  0  0
 29 30  2  0  0  0
 30 31  1  0  0  0
 30 79  1  0  0  0
 31 32  2  0  0  0
 31 35  1  0  0  0
 32 33  1  0  0  0
 32 80  1  0  0  0
 33 34  2  0  0  0
 33 81  1  0  0  0
 35 36  1  0  0  0
 35 37  1  0  0  0
 35 38  1  0  0  0
 36 82  1  0  0  0
 36 83  1  0  0  0
 36 84  1  0  0  0
 37 85  1  0  0  0
 37 86  1  0  0  0
 37 87  1  0  0  0
 38 88  1  0  0  0
 38 89  1  0  0  0
 38 90  1  0  0  0
 39 43  1  0  0  0
 39 40  2  0  0  0
 40 41  1  0  0  0
 41 42  2  0  0  0
 41 91  1  0  0  0
 42 43  1  0  0  0
 42 92  1  0  0  0
M  END
> <s_m_source_file>
BACE_59.smi

> <i_m_source_file_index>
1

> <i_lp_mmshare_version>
42013

> <i_f3d_flags>
0

> <s_epik_input>
W05IXTFbQ0gyXVtDSDJdW0NIMl1bQ0gyXVtDSDJdW0NIMl1bQ0gyXVtDQEBIXShbQ0gzXSlbQ0gyXVtDQEhdKFtOSF1DKD1PKWMoW2NIXTIpW2NIXWMoW2NIXWMxMiktYzNuW2NIXVtjSF1vMylbQ0BIXShbT0hdKVtDSDJdW05IXUM0KFtDSDJdW0NIMl00KWM1W2NIXWMoW2NIXVtjSF1uNSlDKFtDSDNdKShbQ0gzXSlbQ0gzXQ==

> <s_epik_cmdline>
J2VwaWtfcHl0aG9uJywgJy1waCcsICc3LjAnLCAnLXRuJywgJzgnLCAnLW1hJywgJzIwMCcsICctaW1hZScsICc8aW5maWxlLm1hZT4nLCAnLW9tYWUnLCAnPG91dGZpbGUubWFlPic=

> <r_epik_Ionization_Penalty>
0.218141

> <r_epik_Ionization_Penalty_Charging>
0

> <r_epik_Ionization_Penalty_Neutral>
0.218141

> <r_epik_State_Penalty>
0.202694

> <r_epik_Charging_Adjusted_Penalty>
0.202694

> <i_epik_Tot_Q>
0

> <i_epik_Tot_abs_Q>
0

> <s_lp_Force_Field>
OPLS_2005

> <r_lp_Energy>
48.9034

> <b_lp_Chiralities_Consistent>
1

> <s_lp_Variant>
BACE_59.smi:1-1

$$$$
BACE_59.smi:1
                    3D
 Structure written by MMmdl.
 93 97  0  0  1  0            999 V2000
    0.3320    1.5031   -3.7068 C   0  0  0  0  0  0
   -0.7349    1.6022   -2.6040 C   0  0  2  0  0  0
   -1.9349    2.4412   -3.0940 C   0  0  0  0  0  0
   -3.1302    2.4426   -2.1288 C   0  0  0  0  0  0
   -4.3732    3.1336   -2.7130 C   0  0  0  0  0  0
   -5.5305    3.2368   -1.7063 C   0  0  0  0  0  0
   -6.2565    1.9010   -1.4500 C   0  0  0  0  0  0
   -7.1970    1.9314   -0.2293 C   0  0  0  0  0  0
   -6.5307    1.4687    1.0789 C   0  0  0  0  0  0
   -5.4584    2.3599    1.4966 N   0  0  0  0  0  0
   -4.3786    1.8067    2.1955 C   0  0  0  0  0  0
   -4.5433    0.7565    3.1266 C   0  0  0  0  0  0
   -3.4297    0.2317    3.8190 C   0  0  0  0  0  0
   -2.1453    0.7612    3.5693 C   0  0  0  0  0  0
   -1.9678    1.7910    2.6228 C   0  0  0  0  0  0
   -3.0907    2.3241    1.9557 C   0  0  0  0  0  0
   -0.5975    2.3439    2.3702 C   0  0  0  0  0  0
    0.0221    2.8819    3.2845 O   0  0  0  0  0  0
   -0.0733    2.2292    1.1357 N   0  0  0  0  0  0
   -0.5465    1.4209    0.0063 C   0  0  1  0  0  0
   -0.1089    2.1434   -1.2917 C   0  0  0  0  0  0
    0.0155   -0.0286    0.0886 C   0  0  2  0  0  0
   -0.8286   -0.8211    0.8988 O   0  0  0  0  0  0
    1.4739   -0.1457    0.5707 C   0  0  0  0  0  0
    2.0425   -1.4600    0.2031 N   0  3  0  0  0  0
    3.5102   -1.4880    0.0310 C   0  0  0  0  0  0
    4.1027   -2.8304    0.3974 C   0  0  0  0  0  0
    4.3005   -1.6439    1.3116 C   0  0  0  0  0  0
    4.0026   -0.7427   -1.1744 C   0  0  0  0  0  0
    3.9007   -1.2960   -2.4680 C   0  0  0  0  0  0
    4.3202   -0.5311   -3.5840 C   0  0  0  0  0  0
    4.8289    0.7632   -3.3261 C   0  0  0  0  0  0
    4.8939    1.2254   -1.9981 C   0  0  0  0  0  0
    4.4863    0.4958   -0.9403 N   0  0  0  0  0  0
    4.2362   -1.0516   -5.0298 C   0  0  0  0  0  0
    3.3312   -0.1215   -5.8641 C   0  0  0  0  0  0
    3.6519   -2.4793   -5.1186 C   0  0  0  0  0  0
    5.6480   -1.0803   -5.6506 C   0  0  0  0  0  0
   -3.5984   -0.8488    4.7863 C   0  0  0  0  0  0
   -2.6614   -1.4842    5.4915 N   0  0  0  0  0  0
   -3.3480   -2.4161    6.2559 C   0  0  0  0  0  0
   -4.6820   -2.2995    5.9685 C   0  0  0  0  0  0
   -4.8549   -1.3111    5.0384 O   0  0  0  0  0  0
   -1.1038    0.5901   -2.4449 H   0  0  0  0  0  0
   -1.6332    1.3754   -0.0072 H   0  0  0  0  0  0
   -0.0398   -0.4808   -0.9004 H   0  0  0  0  0  0
    0.7490    2.4820   -3.9453 H   0  0  0  0  0  0
   -0.0838    1.0857   -4.6244 H   0  0  0  0  0  0
    1.1552    0.8566   -3.3995 H   0  0  0  0  0  0
   -1.6183    3.4670   -3.2878 H   0  0  0  0  0  0
   -2.2694    2.0444   -4.0536 H   0  0  0  0  0  0
   -3.3719    1.4151   -1.8581 H   0  0  0  0  0  0
   -2.8486    2.9501   -1.2066 H   0  0  0  0  0  0
   -4.0958    4.1410   -3.0254 H   0  0  0  0  0  0
   -4.7066    2.6168   -3.6136 H   0  0  0  0  0  0
   -5.1488    3.6595   -0.7782 H   0  0  0  0  0  0
   -6.2593    3.9586   -2.0768 H   0  0  0  0  0  0
   -6.8363    1.6552   -2.3403 H   0  0  0  0  0  0
   -5.5458    1.0838   -1.3302 H   0  0  0  0  0  0
   -7.6403    2.9208   -0.1095 H   0  0  0  0  0  0
   -8.0309    1.2569   -0.4262 H   0  0  0  0  0  0
   -7.2752    1.4306    1.8746 H   0  0  0  0  0  0
   -6.1521    0.4536    0.9506 H   0  0  0  0  0  0
   -5.2376    3.1065    0.8532 H   0  0  0  0  0  0
   -5.5297    0.3608    3.3195 H   0  0  0  0  0  0
   -1.2868    0.3688    4.0959 H   0  0  0  0  0  0
   -2.9617    3.1309    1.2481 H   0  0  0  0  0  0
    0.8239    2.6721    0.9994 H   0  0  0  0  0  0
    0.9789    2.0992   -1.3572 H   0  0  0  0  0  0
   -0.3333    3.2084   -1.2114 H   0  0  0  0  0  0
   -0.8900   -0.4231    1.7544 H   0  0  0  0  0  0
    2.0549    0.6436    0.0984 H   0  0  0  0  0  0
    1.5626    0.0065    1.6470 H   0  0  0  0  0  0
    1.7724   -2.1359    0.9032 H   0  0  0  0  0  0
    3.4388   -3.6166    0.7525 H   0  0  0  0  0  0
    4.9751   -3.1727   -0.1563 H   0  0  0  0  0  0
    5.2965   -1.2071    1.3504 H   0  0  0  0  0  0
    3.7595   -1.6550    2.2560 H   0  0  0  0  0  0
    3.4930   -2.2890   -2.5755 H   0  0  0  0  0  0
    5.1676    1.4010   -4.1289 H   0  0  0  0  0  0
    5.2783    2.2109   -1.7801 H   0  0  0  0  0  0
    3.2441   -0.4727   -6.8930 H   0  0  0  0  0  0
    3.7166    0.8975   -5.9061 H   0  0  0  0  0  0
    2.3236   -0.0750   -5.4502 H   0  0  0  0  0  0
    2.6364   -2.5246   -4.7230 H   0  0  0  0  0  0
    4.2617   -3.1998   -4.5719 H   0  0  0  0  0  0
    3.6050   -2.8229   -6.1526 H   0  0  0  0  0  0
    5.6244   -1.4611   -6.6723 H   0  0  0  0  0  0
    6.3180   -1.7226   -5.0779 H   0  0  0  0  0  0
    6.0991   -0.0886   -5.6898 H   0  0  0  0  0  0
   -2.8389   -3.0824    6.9365 H   0  0  0  0  0  0
   -5.5718   -2.8055    6.3129 H   0  0  0  0  0  0
    1.6355   -1.7362   -0.6788 H   0  0  0  0  0  0
  1  2  1  0  0  0
  1 47  1  0  0  0
  1 48  1  0  0  0
  1 49  1  0  0  0
  2 44  1  0  0  0
  2 21  1  0  0  0
  2  3  1  0  0  0
  3  4  1  0  0  0
  3 50  1  0  0  0
  3 51  1  0  0  0
  4  5  1  0  0  0
  4 52  1  0  0  0
  4 53  1  0  0  0
  5  6  1  0  0  0
  5 54  1  0  0  0
  5 55  1  0  0  0
  6  7  1  0  0  0
  6 56  1  0  0  0
  6 57  1  0  0  0
  7  8  1  0  0  0
  7 58  1  0  0  0
  7 59  1  0  0  0
  8  9  1  0  0  0
  8 60  1  0  0  0
  8 61  1  0  0  0
  9 10  1  0  0  0
  9 62  1  0  0  0
  9 63  1  0  0  0
 10 11  1  0  0  0
 10 64  1  0  0  0
 11 16  1  0  0  0
 11 12  2  0  0  0
 12 13  1  0  0  0
 12 65  1  0  0  0
 13 14  2  0  0  0
 13 39  1  0  0  0
 14 15  1  0  0  0
 14 66  1  0  0  0
 15 16  2  0  0  0
 15 17  1  0  0  0
 16 67  1  0  0  0
 17 18  2  0  0  0
 17 19  1  0  0  0
 19 20  1  0  0  0
 19 68  1  0  0  0
 20 45  1  0  0  0
 20 21  1  0  0  0
 20 22  1  0  0  0
 21 69  1  0  0  0
 21 70  1  0  0  0
 22 46  1  0  0  0
 22 23  1  0  0  0
 22 24  1  0  0  0
 23 71  1  0  0  0
 24 25  1  0  0  0
 24 72  1  0  0  0
 24 73  1  0  0  0
 25 26  1  0  0  0
 25 74  1  0  0  0
 25 93  1  0  0  0
 26 28  1  0  0  0
 26 27  1  0  0  0
 26 29  1  0  0  0
 27 28  1  0  0  0
 27 75  1  0  0  0
 27 76  1  0  0  0
 28 77  1  0  0  0
 28 78  1  0  0  0
 29 34  1  0  0  0
 29 30  2  0  0  0
 30 31  1  0  0  0
 30 79  1  0  0  0
 31 32  2  0  0  0
 31 35  1  0  0  0
 32 33  1  0  0  0
 32 80  1  0  0  0
 33 34  2  0  0  0
 33 81  1  0  0  0
 35 36  1  0  0  0
 35 37  1  0  0  0
 35 38  1  0  0  0
 36 82  1  0  0  0
 36 83  1  0  0  0
 36 84  1  0  0  0
 37 85  1  0  0  0
 37 86  1  0  0  0
 37 87  1  0  0  0
 38 88  1  0  0  0
 38 89  1  0  0  0
 38 90  1  0  0  0
 39 43  1  0  0  0
 39 40  2  0  0  0
 40 41  1  0  0  0
 41 42  2  0  0  0
 41 91  1  0  0  0
 42 43  1  0  0  0
 42 92  1  0  0  0
M  CHG  1  25   1
M  END
> <s_m_source_file>
BACE_59.smi

> <i_m_source_file_index>
1

> <i_lp_mmshare_version>
42013

> <i_f3d_flags>
0

> <s_epik_input>
W05IXTFbQ0gyXVtDSDJdW0NIMl1bQ0gyXVtDSDJdW0NIMl1bQ0gyXVtDQEBIXShbQ0gzXSlbQ0gyXVtDQEhdKFtOSF1DKD1PKWMoW2NIXTIpW2NIXWMoW2NIXWMxMiktYzNuW2NIXVtjSF1vMylbQ0BIXShbT0hdKVtDSDJdW05IXUM0KFtDSDJdW0NIMl00KWM1W2NIXWMoW2NIXVtjSF1uNSlDKFtDSDNdKShbQ0gzXSlbQ0gzXQ==

> <s_epik_cmdline>
J2VwaWtfcHl0aG9uJywgJy1waCcsICc3LjAnLCAnLXRuJywgJzgnLCAnLW1hJywgJzIwMCcsICctaW1hZScsICc8aW5maWxlLm1hZT4nLCAnLW9tYWUnLCAnPG91dGZpbGUubWFlPic=

> <r_epik_Ionization_Penalty>
0.726096

> <r_epik_Ionization_Penalty_Charging>
0.724168

> <r_epik_Ionization_Penalty_Neutral>
0.00192846

> <r_epik_State_Penalty>
0.754828

> <r_epik_Charging_Adjusted_Penalty>
1.479

> <i_epik_Tot_Q>
1

> <i_epik_Tot_abs_Q>
1

> <s_lp_Force_Field>
OPLS_2005

> <r_lp_Energy>
44.5479

> <b_lp_Chiralities_Consistent>
1

> <s_lp_Variant>
BACE_59.smi:1-2

$$$$
BACE_59.smi:1
                    3D
 Structure written by MMmdl.
 93 97  0  0  1  0            999 V2000
   -0.2308    1.3097   -4.4329 C   0  0  0  0  0  0
   -1.0704    1.4791   -3.1561 C   0  0  2  0  0  0
   -2.3733    2.2441   -3.4811 C   0  0  0  0  0  0
   -3.3750    2.3143   -2.3185 C   0  0  0  0  0  0
   -4.7233    2.9330   -2.7235 C   0  0  0  0  0  0
   -5.6949    3.0734   -1.5404 C   0  0  0  0  0  0
   -6.3381    1.7415   -1.1048 C   0  0  0  0  0  0
   -7.0556    1.8097    0.2575 C   0  0  0  0  0  0
   -6.1572    1.4393    1.4516 C   0  0  0  0  0  0
   -5.0857    2.4032    1.6538 N   0  0  0  0  0  0
   -3.8694    1.9360    2.1669 C   0  0  0  0  0  0
   -3.8049    0.9167    3.1430 C   0  0  0  0  0  0
   -2.5585    0.4767    3.6404 C   0  0  0  0  0  0
   -1.3699    1.0627    3.1518 C   0  0  0  0  0  0
   -1.4246    2.0638    2.1597 C   0  0  0  0  0  0
   -2.6766    2.5087    1.6857 C   0  0  0  0  0  0
   -0.1585    2.6759    1.6410 C   0  0  0  0  0  0
    0.5746    3.3049    2.4009 O   0  0  0  0  0  0
    0.1420    2.5180    0.3379 N   0  0  0  0  0  0
   -0.4372    1.5682   -0.6210 C   0  0  1  0  0  0
   -0.2299    2.1508   -2.0386 C   0  0  0  0  0  0
    0.2070    0.1551   -0.4766 C   0  0  2  0  0  0
   -0.5802   -0.6074    0.4171 O   0  0  0  0  0  0
    1.6706    0.1573    0.0076 C   0  0  0  0  0  0
    2.2857   -1.1630   -0.1207 N   0  0  0  0  0  0
    3.6978   -1.2542    0.2615 C   0  0  0  0  0  0
    4.7382   -1.2306   -0.8384 C   0  0  0  0  0  0
    4.4249   -2.5227   -0.1263 C   0  0  0  0  0  0
    3.9945   -0.6435    1.6027 C   0  0  0  0  0  0
    3.6606   -1.2652    2.8243 C   0  0  0  0  0  0
    3.9111   -0.6077    4.0544 C   0  0  0  0  0  0
    4.5057    0.6791    4.0052 C   0  0  0  0  0  0
    4.8185    1.2573    2.7594 C   0  0  0  0  0  0
    4.5512    0.5876    1.6203 N   0  3  0  0  0  0
    3.5216   -1.2903    5.3778 C   0  0  0  0  0  0
    3.8935   -0.4500    6.6201 C   0  0  0  0  0  0
    4.2450   -2.6480    5.4965 C   0  0  0  0  0  0
    1.9971   -1.5190    5.4055 C   0  0  0  0  0  0
   -2.5063   -0.5873    4.6389 C   0  0  0  0  0  0
   -3.5167   -1.1611    5.2937 N   0  0  0  0  0  0
   -2.9298   -2.1163    6.1097 C   0  0  0  0  0  0
   -1.5768   -2.0757    5.9028 C   0  0  0  0  0  0
   -1.2939   -1.1105    4.9748 O   0  0  0  0  0  0
   -1.3541    0.4754   -2.8401 H   0  0  0  0  0  0
   -1.5104    1.4879   -0.4641 H   0  0  0  0  0  0
    0.1618   -0.3639   -1.4338 H   0  0  0  0  0  0
    0.0942    2.2738   -4.8255 H   0  0  0  0  0  0
   -0.7983    0.8059   -5.2159 H   0  0  0  0  0  0
    0.6596    0.7096   -4.2415 H   0  0  0  0  0  0
   -2.1357    3.2538   -3.8190 H   0  0  0  0  0  0
   -2.8628    1.7542   -4.3238 H   0  0  0  0  0  0
   -3.5318    1.3118   -1.9211 H   0  0  0  0  0  0
   -2.9489    2.9084   -1.5103 H   0  0  0  0  0  0
   -4.5395    3.9235   -3.1415 H   0  0  0  0  0  0
   -5.1865    2.3484   -3.5192 H   0  0  0  0  0  0
   -5.1699    3.5466   -0.7122 H   0  0  0  0  0  0
   -6.4916    3.7660   -1.8142 H   0  0  0  0  0  0
   -7.0584    1.4507   -1.8702 H   0  0  0  0  0  0
   -5.6011    0.9393   -1.0786 H   0  0  0  0  0  0
   -7.5133    2.7889    0.4043 H   0  0  0  0  0  0
   -7.8815    1.0979    0.2401 H   0  0  0  0  0  0
   -6.7567    1.3973    2.3615 H   0  0  0  0  0  0
   -5.7457    0.4407    1.2969 H   0  0  0  0  0  0
   -5.0214    3.1323    0.9578 H   0  0  0  0  0  0
   -4.7153    0.4736    3.5198 H   0  0  0  0  0  0
   -0.4089    0.7340    3.5216 H   0  0  0  0  0  0
   -2.7216    3.2895    0.9395 H   0  0  0  0  0  0
    0.9641    3.0058    0.0130 H   0  0  0  0  0  0
    0.8323    2.0789   -2.2770 H   0  0  0  0  0  0
   -0.4434    3.2209   -2.0364 H   0  0  0  0  0  0
   -1.4633   -0.6458    0.0825 H   0  0  0  0  0  0
    2.2453    0.8775   -0.5755 H   0  0  0  0  0  0
    1.7060    0.4904    1.0450 H   0  0  0  0  0  0
    1.7327   -1.8775    0.3427 H   0  0  0  0  0  0
    4.3954   -1.1447   -1.8678 H   0  0  0  0  0  0
    5.7004   -0.7678   -0.6283 H   0  0  0  0  0  0
    5.1791   -2.9095    0.5565 H   0  0  0  0  0  0
    3.8825   -3.2752   -0.6959 H   0  0  0  0  0  0
    3.1969   -2.2402    2.8066 H   0  0  0  0  0  0
    4.7246    1.2439    4.8981 H   0  0  0  0  0  0
    5.2650    2.2338    2.6416 H   0  0  0  0  0  0
    3.6134   -0.9626    7.5411 H   0  0  0  0  0  0
    3.3804    0.5125    6.6259 H   0  0  0  0  0  0
    4.9667   -0.2627    6.6743 H   0  0  0  0  0  0
    5.3280   -2.5216    5.4625 H   0  0  0  0  0  0
    3.9692   -3.3341    4.6956 H   0  0  0  0  0  0
    4.0035   -3.1446    6.4370 H   0  0  0  0  0  0
    1.6837   -1.9854    6.3401 H   0  0  0  0  0  0
    1.6628   -2.1688    4.5963 H   0  0  0  0  0  0
    1.4560   -0.5763    5.3130 H   0  0  0  0  0  0
   -3.5148   -2.7450    6.7649 H   0  0  0  0  0  0
   -0.7402   -2.6261    6.3063 H   0  0  0  0  0  0
    4.7757    1.0313    0.7293 H   0  0  0  0  0  0
  1  2  1  0  0  0
  1 47  1  0  0  0
  1 48  1  0  0  0
  1 49  1  0  0  0
  2 44  1  0  0  0
  2 21  1  0  0  0
  2  3  1  0  0  0
  3  4  1  0  0  0
  3 50  1  0  0  0
  3 51  1  0  0  0
  4  5  1  0  0  0
  4 52  1  0  0  0
  4 53  1  0  0  0
  5  6  1  0  0  0
  5 54  1  0  0  0
  5 55  1  0  0  0
  6  7  1  0  0  0
  6 56  1  0  0  0
  6 57  1  0  0  0
  7  8  1  0  0  0
  7 58  1  0  0  0
  7 59  1  0  0  0
  8  9  1  0  0  0
  8 60  1  0  0  0
  8 61  1  0  0  0
  9 10  1  0  0  0
  9 62  1  0  0  0
  9 63  1  0  0  0
 10 11  1  0  0  0
 10 64  1  0  0  0
 11 16  1  0  0  0
 11 12  2  0  0  0
 12 13  1  0  0  0
 12 65  1  0  0  0
 13 14  2  0  0  0
 13 39  1  0  0  0
 14 15  1  0  0  0
 14 66  1  0  0  0
 15 16  2  0  0  0
 15 17  1  0  0  0
 16 67  1  0  0  0
 17 18  2  0  0  0
 17 19  1  0  0  0
 19 20  1  0  0  0
 19 68  1  0  0  0
 20 45  1  0  0  0
 20 21  1  0  0  0
 20 22  1  0  0  0
 21 69  1  0  0  0
 21 70  1  0  0  0
 22 46  1  0  0  0
 22 23  1  0  0  0
 22 24  1  0  0  0
 23 71  1  0  0  0
 24 25  1  0  0  0
 24 72  1  0  0  0
 24 73  1  0  0  0
 25 26  1  0  0  0
 25 74  1  0  0  0
 26 28  1  0  0  0
 26 27  1  0  0  0
 26 29  1  0  0  0
 27 28  1  0  0  0
 27 75  1  0  0  0
 27 76  1  0  0  0
 28 77  1  0  0  0
 28 78  1  0  0  0
 29 34  1  0  0  0
 29 30  2  0  0  0
 30 31  1  0  0  0
 30 79  1  0  0  0
 31 32  2  0  0  0
 31 35  1  0  0  0
 32 33  1  0  0  0
 32 80  1  0  0  0
 33 34  2  0  0  0
 33 81  1  0  0  0
 34 93  1  0  0  0
 35 36  1  0  0  0
 35 37  1  0  0  0
 35 38  1  0  0  0
 36 82  1  0  0  0
 36 83  1  0  0  0
 36 84  1  0  0  0
 37 85  1  0  0  0
 37 86  1  0  0  0
 37 87  1  0  0  0
 38 88  1  0  0  0
 38 89  1  0  0  0
 38 90  1  0  0  0
 39 43  1  0  0  0
 39 40  2  0  0  0
 40 41  1  0  0  0
 41 42  2  0  0  0
 41 91  1  0  0  0
 42 43  1  0  0  0
 42 92  1  0  0  0
M  CHG  1  34   1
M  END
> <s_m_source_file>
BACE_59.smi

> <i_m_source_file_index>
1

> <i_lp_mmshare_version>
42013

> <i_f3d_flags>
0

> <s_epik_input>
W05IXTFbQ0gyXVtDSDJdW0NIMl1bQ0gyXVtDSDJdW0NIMl1bQ0gyXVtDQEBIXShbQ0gzXSlbQ0gyXVtDQEhdKFtOSF1DKD1PKWMoW2NIXTIpW2NIXWMoW2NIXWMxMiktYzNuW2NIXVtjSF1vMylbQ0BIXShbT0hdKVtDSDJdW05IXUM0KFtDSDJdW0NIMl00KWM1W2NIXWMoW2NIXVtjSF1uNSlDKFtDSDNdKShbQ0gzXSlbQ0gzXQ==

> <s_epik_cmdline>
J2VwaWtfcHl0aG9uJywgJy1waCcsICc3LjAnLCAnLXRuJywgJzgnLCAnLW1hJywgJzIwMCcsICctaW1hZScsICc8aW5maWxlLm1hZT4nLCAnLW9tYWUnLCAnPG91dGZpbGUubWFlPic=

> <r_epik_Ionization_Penalty>
2.37745

> <r_epik_Ionization_Penalty_Charging>
2.37685

> <r_epik_Ionization_Penalty_Neutral>
0.000605941

> <r_epik_State_Penalty>
2.72743

> <r_epik_Charging_Adjusted_Penalty>
5.10428

> <i_epik_Tot_Q>
1

> <i_epik_Tot_abs_Q>
1

> <s_lp_Force_Field>
OPLS_2005

> <r_lp_Energy>
61.1971

> <b_lp_Chiralities_Consistent>
1

> <s_lp_Variant>
BACE_59.smi:1-3

$$$$
