BACE_28.smi:1
                    3D
 Structure written by MMmdl.
 82 83  0  0  1  0            999 V2000
    0.0256    4.4699   -0.0211 C   0  0  0  0  0  0
   -0.4895    3.7740    1.2527 C   0  0  2  0  0  0
   -0.1845    4.6075    2.5197 C   0  0  0  0  0  0
   -0.8960    5.9761    2.6245 C   0  0  0  0  0  0
   -2.4336    5.9828    2.4726 C   0  0  0  0  0  0
   -3.2558    5.4993    3.6836 C   0  0  0  0  0  0
   -3.0680    4.0194    4.0672 C   0  0  0  0  0  0
   -4.2563    3.4167    4.8363 C   0  0  0  0  0  0
   -5.5220    3.1155    4.0029 C   0  0  0  0  0  0
   -5.4072    1.9065    3.0433 C   0  0  0  0  0  0
   -4.8521    2.2086    1.6334 C   0  0  0  0  0  0
   -4.6723    3.3821    1.3097 O   0  0  0  0  0  0
   -4.5917    1.1697    0.7925 N   0  0  0  0  0  0
   -4.6649   -0.2177    1.2747 C   0  0  0  0  0  0
   -4.1459    1.3359   -0.6172 C   0  0  1  0  0  0
   -4.9384    2.3957   -1.4175 C   0  0  0  0  0  0
   -2.6181    1.4271   -0.8065 C   0  0  0  0  0  0
   -2.1589    1.6462   -1.9273 O   0  0  0  0  0  0
   -1.8396    1.2501    0.2748 N   0  0  0  0  0  0
   -0.3795    1.3312    0.3193 C   0  0  1  0  0  0
    0.0768    2.3412    1.4030 C   0  0  0  0  0  0
    0.2105   -0.0922    0.4697 C   0  0  2  0  0  0
   -0.0555   -0.5969    1.7657 O   0  0  0  0  0  0
    1.7311   -0.1379    0.2352 C   0  0  0  0  0  0
    2.2025   -1.5364    0.0904 N   0  3  0  0  0  0
    3.6606   -1.7497   -0.1098 C   0  0  0  0  0  0
    4.4093   -1.4136    1.2029 C   0  0  0  0  0  0
    3.8853   -3.2534   -0.3740 C   0  0  0  0  0  0
    4.1497   -0.9342   -1.3223 C   0  0  0  0  0  0
    5.1077    0.1031   -1.1998 C   0  0  0  0  0  0
    5.5213    0.8378   -2.3279 C   0  0  0  0  0  0
    4.9828    0.5519   -3.5952 C   0  0  0  0  0  0
    4.0275   -0.4708   -3.7326 C   0  0  0  0  0  0
    3.2860   -0.8591   -5.4413 Br  0  0  0  0  0  0
    3.6152   -1.2059   -2.6049 C   0  0  0  0  0  0
   -1.5699    3.6821    1.1676 H   0  0  0  0  0  0
   -4.4075    0.4086   -1.1276 H   0  0  0  0  0  0
   -0.0219    1.7047   -0.6402 H   0  0  0  0  0  0
   -0.2710   -0.7481   -0.2577 H   0  0  0  0  0  0
    1.1112    4.5710   -0.0069 H   0  0  0  0  0  0
   -0.4002    5.4669   -0.1303 H   0  0  0  0  0  0
   -0.2470    3.9196   -0.9208 H   0  0  0  0  0  0
   -0.4179    4.0198    3.4042 H   0  0  0  0  0  0
    0.8916    4.7752    2.5783 H   0  0  0  0  0  0
   -0.6313    6.4416    3.5744 H   0  0  0  0  0  0
   -0.4800    6.6347    1.8621 H   0  0  0  0  0  0
   -2.7296    7.0162    2.2892 H   0  0  0  0  0  0
   -2.7427    5.4519    1.5740 H   0  0  0  0  0  0
   -3.0448    6.1270    4.5501 H   0  0  0  0  0  0
   -4.3040    5.6767    3.4452 H   0  0  0  0  0  0
   -2.8460    3.4122    3.1925 H   0  0  0  0  0  0
   -2.1895    3.9462    4.7075 H   0  0  0  0  0  0
   -3.9313    2.4946    5.3195 H   0  0  0  0  0  0
   -4.5211    4.0923    5.6504 H   0  0  0  0  0  0
   -6.3207    2.8872    4.7092 H   0  0  0  0  0  0
   -5.8677    4.0074    3.4804 H   0  0  0  0  0  0
   -4.8184    1.1313    3.5330 H   0  0  0  0  0  0
   -6.4053    1.4904    2.9011 H   0  0  0  0  0  0
   -5.6693   -0.4581    1.6258 H   0  0  0  0  0  0
   -3.9612   -0.3808    2.0919 H   0  0  0  0  0  0
   -4.4139   -0.9509    0.5083 H   0  0  0  0  0  0
   -4.7914    2.2617   -2.4898 H   0  0  0  0  0  0
   -4.6270    3.4140   -1.1854 H   0  0  0  0  0  0
   -6.0094    2.3150   -1.2288 H   0  0  0  0  0  0
   -2.3035    1.0640    1.1520 H   0  0  0  0  0  0
    1.1652    2.3965    1.4243 H   0  0  0  0  0  0
   -0.2205    1.9559    2.3790 H   0  0  0  0  0  0
    0.2929    0.0077    2.4033 H   0  0  0  0  0  0
    1.9668    0.4127   -0.6756 H   0  0  0  0  0  0
    2.2524    0.3603    1.0516 H   0  0  0  0  0  0
    1.9209   -2.0481    0.9145 H   0  0  0  0  0  0
    5.4754   -1.6282    1.1169 H   0  0  0  0  0  0
    4.0306   -2.0082    2.0352 H   0  0  0  0  0  0
    4.3118   -0.3675    1.4917 H   0  0  0  0  0  0
    4.9389   -3.4682   -0.5574 H   0  0  0  0  0  0
    3.3238   -3.6142   -1.2357 H   0  0  0  0  0  0
    3.5740   -3.8576    0.4793 H   0  0  0  0  0  0
    5.5464    0.3593   -0.2483 H   0  0  0  0  0  0
    6.2536    1.6244   -2.2199 H   0  0  0  0  0  0
    5.3006    1.1177   -4.4587 H   0  0  0  0  0  0
    2.8720   -1.9783   -2.7346 H   0  0  0  0  0  0
    1.7228   -1.9343   -0.7043 H   0  0  0  0  0  0
  1  2  1  0  0  0
  1 40  1  0  0  0
  1 41  1  0  0  0
  1 42  1  0  0  0
  2 36  1  0  0  0
  2 21  1  0  0  0
  2  3  1  0  0  0
  3  4  1  0  0  0
  3 43  1  0  0  0
  3 44  1  0  0  0
  4  5  1  0  0  0
  4 45  1  0  0  0
  4 46  1  0  0  0
  5  6  1  0  0  0
  5 47  1  0  0  0
  5 48  1  0  0  0
  6  7  1  0  0  0
  6 49  1  0  0  0
  6 50  1  0  0  0
  7  8  1  0  0  0
  7 51  1  0  0  0
  7 52  1  0  0  0
  8  9  1  0  0  0
  8 53  1  0  0  0
  8 54  1  0  0  0
  9 10  1  0  0  0
  9 55  1  0  0  0
  9 56  1  0  0  0
 10 11  1  0  0  0
 10 57  1  0  0  0
 10 58  1  0  0  0
 11 12  2  0  0  0
 11 13  1  0  0  0
 13 14  1  0  0  0
 13 15  1  0  0  0
 14 59  1  0  0  0
 14 60  1  0  0  0
 14 61  1  0  0  0
 15 37  1  0  0  0
 15 16  1  0  0  0
 15 17  1  0  0  0
 16 62  1  0  0  0
 16 63  1  0  0  0
 16 64  1  0  0  0
 17 18  2  0  0  0
 17 19  1  0  0  0
 19 20  1  0  0  0
 19 65  1  0  0  0
 20 38  1  0  0  0
 20 21  1  0  0  0
 20 22  1  0  0  0
 21 66  1  0  0  0
 21 67  1  0  0  0
 22 39  1  0  0  0
 22 23  1  0  0  0
 22 24  1  0  0  0
 23 68  1  0  0  0
 24 25  1  0  0  0
 24 69  1  0  0  0
 24 70  1  0  0  0
 25 26  1  0  0  0
 25 71  1  0  0  0
 25 82  1  0  0  0
 26 27  1  0  0  0
 26 28  1  0  0  0
 26 29  1  0  0  0
 27 72  1  0  0  0
 27 73  1  0  0  0
 27 74  1  0  0  0
 28 75  1  0  0  0
 28 76  1  0  0  0
 28 77  1  0  0  0
 29 35  1  0  0  0
 29 30  2  0  0  0
 30 31  1  0  0  0
 30 78  1  0  0  0
 31 32  2  0  0  0
 31 79  1  0  0  0
 32 33  1  0  0  0
 32 80  1  0  0  0
 33 34  1  0  0  0
 33 35  2  0  0  0
 35 81  1  0  0  0
M  CHG  1  25   1
M  END
> <s_m_source_file>
BACE_28.smi

> <i_m_source_file_index>
1

> <i_lp_mmshare_version>
42013

> <i_f3d_flags>
0

> <s_epik_input>
W0NIM11bQ0BASF0xW0NIMl1bQ0gyXVtDSDJdW0NIMl1bQ0gyXVtDSDJdW0NIMl1bQ0gyXUMoPU8pTihbQ0gzXSlbQ0BASF0oW0NIM10pQyg9TylbTkhdW0NAQEhdKFtDSDJdMSlbQ0BIXShbT0hdKVtDSDJdW05IXUMoW0NIM10pKFtDSDNdKWMyW2NIXVtjSF1bY0hdYyhCcilbY0hdMg==

> <s_epik_cmdline>
J2VwaWtfcHl0aG9uJywgJy1waCcsICc3LjAnLCAnLXRuJywgJzgnLCAnLW1hJywgJzIwMCcsICctaW1hZScsICc8aW5maWxlLm1hZT4nLCAnLW9tYWUnLCAnPG91dGZpbGUubWFlPic=

> <r_epik_Ionization_Penalty>
0.0223643

> <r_epik_Ionization_Penalty_Charging>
0.0223641

> <r_epik_Ionization_Penalty_Neutral>
2.47137e-07

> <r_epik_State_Penalty>
0.0180398

> <r_epik_Charging_Adjusted_Penalty>
0.0404039

> <i_epik_Tot_Q>
1

> <i_epik_Tot_abs_Q>
1

> <s_lp_Force_Field>
OPLS_2005

> <r_lp_Energy>
39.3945

> <b_lp_Chiralities_Consistent>
1

> <s_lp_Variant>
BACE_28.smi:1-1

$$$$
BACE_28.smi:1
                    3D
 Structure written by MMmdl.
 81 82  0  0  1  0            999 V2000
    0.0237    4.4736   -0.0124 C   0  0  0  0  0  0
   -0.4869    3.7947    1.2722 C   0  0  2  0  0  0
   -0.2083    4.6586    2.5246 C   0  0  0  0  0  0
   -0.9494    6.0131    2.5971 C   0  0  0  0  0  0
   -2.4850    5.9840    2.4267 C   0  0  0  0  0  0
   -3.3112    5.4923    3.6317 C   0  0  0  0  0  0
   -3.1065    4.0164    4.0220 C   0  0  0  0  0  0
   -4.2905    3.4022    4.7884 C   0  0  0  0  0  0
   -5.5509    3.0870    3.9519 C   0  0  0  0  0  0
   -5.4211    1.8768    2.9955 C   0  0  0  0  0  0
   -4.8497    2.1779    1.5916 C   0  0  0  0  0  0
   -4.6971    3.3528    1.2587 O   0  0  0  0  0  0
   -4.5475    1.1370    0.7670 N   0  0  0  0  0  0
   -4.6000   -0.2467    1.2627 C   0  0  0  0  0  0
   -4.0682    1.2956   -0.6329 C   0  0  1  0  0  0
   -4.8416    2.3459   -1.4641 C   0  0  0  0  0  0
   -2.5366    1.3858   -0.7884 C   0  0  0  0  0  0
   -2.0529    1.5704   -1.9052 O   0  0  0  0  0  0
   -1.7836    1.2457    0.3161 N   0  0  0  0  0  0
   -0.3247    1.3336    0.3927 C   0  0  1  0  0  0
    0.1035    2.3759    1.4570 C   0  0  0  0  0  0
    0.2702   -0.0804    0.6033 C   0  0  2  0  0  0
   -0.0675   -0.5519    1.8947 O   0  0  0  0  0  0
    1.8048   -0.1005    0.4737 C   0  0  0  0  0  0
    2.2891   -1.4580    0.1965 N   0  0  0  0  0  0
    3.7363   -1.6629   -0.0323 C   0  0  0  0  0  0
    4.1468   -0.9403   -1.3371 C   0  0  0  0  0  0
    4.5440   -1.0827    1.1526 C   0  0  0  0  0  0
    4.0574   -3.1673   -0.1600 C   0  0  0  0  0  0
    5.3831   -3.5814   -0.4401 C   0  0  0  0  0  0
    5.7101   -4.9458   -0.5578 C   0  0  0  0  0  0
    4.7150   -5.9253   -0.3949 C   0  0  0  0  0  0
    3.3940   -5.5362   -0.1115 C   0  0  0  0  0  0
    2.0433   -6.8578    0.1150 Br  0  0  0  0  0  0
    3.0675   -4.1712    0.0064 C   0  0  0  0  0  0
   -1.5644    3.6813    1.1803 H   0  0  0  0  0  0
   -4.3166    0.3633   -1.1410 H   0  0  0  0  0  0
    0.0555    1.6816   -0.5678 H   0  0  0  0  0  0
   -0.1620   -0.7542   -0.1389 H   0  0  0  0  0  0
    1.1068    4.5972    0.0073 H   0  0  0  0  0  0
   -0.4216    5.4589   -0.1463 H   0  0  0  0  0  0
   -0.2309    3.8969   -0.9009 H   0  0  0  0  0  0
   -0.4373    4.0835    3.4184 H   0  0  0  0  0  0
    0.8639    4.8481    2.5889 H   0  0  0  0  0  0
   -0.7064    6.5001    3.5421 H   0  0  0  0  0  0
   -0.5381    6.6672    1.8282 H   0  0  0  0  0  0
   -2.8009    7.0092    2.2305 H   0  0  0  0  0  0
   -2.7719    5.4390    1.5288 H   0  0  0  0  0  0
   -3.1181    6.1255    4.4983 H   0  0  0  0  0  0
   -4.3594    5.6536    3.3817 H   0  0  0  0  0  0
   -2.8731    3.4083    3.1509 H   0  0  0  0  0  0
   -2.2310    3.9551    4.6672 H   0  0  0  0  0  0
   -3.9565    2.4840    5.2726 H   0  0  0  0  0  0
   -4.5636    4.0754    5.6019 H   0  0  0  0  0  0
   -6.3490    2.8517    4.6567 H   0  0  0  0  0  0
   -5.9052    3.9740    3.4269 H   0  0  0  0  0  0
   -4.8351    1.1067    3.4960 H   0  0  0  0  0  0
   -6.4155    1.4559    2.8423 H   0  0  0  0  0  0
   -5.6040   -0.5032    1.6029 H   0  0  0  0  0  0
   -3.9032   -0.3877    2.0899 H   0  0  0  0  0  0
   -4.3250   -0.9824    0.5070 H   0  0  0  0  0  0
   -4.6571    2.2081   -2.5300 H   0  0  0  0  0  0
   -4.5441    3.3672   -1.2273 H   0  0  0  0  0  0
   -5.9178    2.2586   -1.3113 H   0  0  0  0  0  0
   -2.2677    1.0980    1.1898 H   0  0  0  0  0  0
    1.1909    2.4481    1.4858 H   0  0  0  0  0  0
   -0.1939    2.0064    2.4389 H   0  0  0  0  0  0
   -1.0083   -0.6091    1.9558 H   0  0  0  0  0  0
    2.0864    0.5620   -0.3432 H   0  0  0  0  0  0
    2.2561    0.3067    1.3781 H   0  0  0  0  0  0
    1.7767   -1.8256   -0.5988 H   0  0  0  0  0  0
    5.2038   -1.0737   -1.5649 H   0  0  0  0  0  0
    3.9868    0.1359   -1.2826 H   0  0  0  0  0  0
    3.5807   -1.3156   -2.1904 H   0  0  0  0  0  0
    5.6142   -1.2534    1.0364 H   0  0  0  0  0  0
    4.2431   -1.5385    2.0968 H   0  0  0  0  0  0
    4.4210   -0.0042    1.2494 H   0  0  0  0  0  0
    6.1696   -2.8528   -0.5654 H   0  0  0  0  0  0
    6.7268   -5.2404   -0.7722 H   0  0  0  0  0  0
    4.9654   -6.9722   -0.4846 H   0  0  0  0  0  0
    2.0412   -3.9229    0.2295 H   0  0  0  0  0  0
  1  2  1  0  0  0
  1 40  1  0  0  0
  1 41  1  0  0  0
  1 42  1  0  0  0
  2 36  1  0  0  0
  2 21  1  0  0  0
  2  3  1  0  0  0
  3  4  1  0  0  0
  3 43  1  0  0  0
  3 44  1  0  0  0
  4  5  1  0  0  0
  4 45  1  0  0  0
  4 46  1  0  0  0
  5  6  1  0  0  0
  5 47  1  0  0  0
  5 48  1  0  0  0
  6  7  1  0  0  0
  6 49  1  0  0  0
  6 50  1  0  0  0
  7  8  1  0  0  0
  7 51  1  0  0  0
  7 52  1  0  0  0
  8  9  1  0  0  0
  8 53  1  0  0  0
  8 54  1  0  0  0
  9 10  1  0  0  0
  9 55  1  0  0  0
  9 56  1  0  0  0
 10 11  1  0  0  0
 10 57  1  0  0  0
 10 58  1  0  0  0
 11 12  2  0  0  0
 11 13  1  0  0  0
 13 14  1  0  0  0
 13 15  1  0  0  0
 14 59  1  0  0  0
 14 60  1  0  0  0
 14 61  1  0  0  0
 15 37  1  0  0  0
 15 16  1  0  0  0
 15 17  1  0  0  0
 16 62  1  0  0  0
 16 63  1  0  0  0
 16 64  1  0  0  0
 17 18  2  0  0  0
 17 19  1  0  0  0
 19 20  1  0  0  0
 19 65  1  0  0  0
 20 38  1  0  0  0
 20 21  1  0  0  0
 20 22  1  0  0  0
 21 66  1  0  0  0
 21 67  1  0  0  0
 22 39  1  0  0  0
 22 23  1  0  0  0
 22 24  1  0  0  0
 23 68  1  0  0  0
 24 25  1  0  0  0
 24 69  1  0  0  0
 24 70  1  0  0  0
 25 26  1  0  0  0
 25 71  1  0  0  0
 26 27  1  0  0  0
 26 28  1  0  0  0
 26 29  1  0  0  0
 27 72  1  0  0  0
 27 73  1  0  0  0
 27 74  1  0  0  0
 28 75  1  0  0  0
 28 76  1  0  0  0
 28 77  1  0  0  0
 29 35  1  0  0  0
 29 30  2  0  0  0
 30 31  1  0  0  0
 30 78  1  0  0  0
 31 32  2  0  0  0
 31 79  1  0  0  0
 32 33  1  0  0  0
 32 80  1  0  0  0
 33 34  1  0  0  0
 33 35  2  0  0  0
 35 81  1  0  0  0
M  END
> <s_m_source_file>
BACE_28.smi

> <i_m_source_file_index>
1

> <i_lp_mmshare_version>
42013

> <i_f3d_flags>
0

> <s_epik_input>
W0NIM11bQ0BASF0xW0NIMl1bQ0gyXVtDSDJdW0NIMl1bQ0gyXVtDSDJdW0NIMl1bQ0gyXUMoPU8pTihbQ0gzXSlbQ0BASF0oW0NIM10pQyg9TylbTkhdW0NAQEhdKFtDSDJdMSlbQ0BIXShbT0hdKVtDSDJdW05IXUMoW0NIM10pKFtDSDNdKWMyW2NIXVtjSF1bY0hdYyhCcilbY0hdMg==

> <s_epik_cmdline>
J2VwaWtfcHl0aG9uJywgJy1waCcsICc3LjAnLCAnLXRuJywgJzgnLCAnLW1hJywgJzIwMCcsICctaW1hZScsICc8aW5maWxlLm1hZT4nLCAnLW9tYWUnLCAnPG91dGZpbGUubWFlPic=

> <r_epik_Ionization_Penalty>
1.95265

> <r_epik_Ionization_Penalty_Charging>
0

> <r_epik_Ionization_Penalty_Neutral>
1.95265

> <r_epik_State_Penalty>
2.07781

> <r_epik_Charging_Adjusted_Penalty>
2.07781

> <i_epik_Tot_Q>
0

> <i_epik_Tot_abs_Q>
0

> <s_lp_Force_Field>
OPLS_2005

> <r_lp_Energy>
47.2978

> <b_lp_Chiralities_Consistent>
1

> <s_lp_Variant>
BACE_28.smi:1-2

$$$$
