BACE_96.smi:1
                    3D
 Structure written by MMmdl.
 84 87  0  0  1  0            999 V2000
    0.8401    5.7674    1.0876 C   0  0  0  0  0  0
   -0.6239    6.1921    0.8406 C   0  0  0  0  0  0
   -0.9775    7.3308    1.8172 C   0  0  0  0  0  0
   -0.7565    6.7249   -0.5998 C   0  0  0  0  0  0
   -1.6134    5.0154    1.0645 C   0  0  0  0  0  0
   -1.1521    3.6728    0.5906 C   0  0  0  0  0  0
   -0.7457    2.5464    1.2469 C   0  0  0  0  0  0
   -0.4311    1.6270    0.2038 C   0  0  0  0  0  0
   -0.6318    2.1795   -0.9855 N   0  0  0  0  0  0
   -1.0962    3.4766   -0.7494 O   0  0  0  0  0  0
    0.1054    0.2056    0.3142 C   0  0  0  0  0  0
   -0.0513   -0.2944    1.7649 C   0  0  0  0  0  0
   -0.7009   -0.7610   -0.5828 C   0  0  0  0  0  0
    1.5608    0.1467    0.0069 N   0  3  0  0  0  0
    2.0226    0.5438   -1.3443 C   0  0  0  0  0  0
    3.5272    0.2636   -1.5088 C   0  0  1  0  0  0
    3.7161   -1.1391   -1.5418 O   0  0  0  0  0  0
    4.1265    0.9179   -2.7875 C   0  0  2  0  0  0
    3.5901    0.2968   -4.1031 C   0  0  0  0  0  0
    4.2215    0.8599   -5.3630 C   0  0  0  0  0  0
    5.2400    0.1431   -6.0237 C   0  0  0  0  0  0
    5.8592    0.6748   -7.1713 C   0  0  0  0  0  0
    5.4196    1.9151   -7.6875 C   0  0  0  0  0  0
    4.3865    2.6226   -7.0431 C   0  0  0  0  0  0
    3.7928    2.1001   -5.8782 C   0  0  0  0  0  0
    6.9088   -0.0212   -7.7220 O   0  0  0  0  0  0
    8.1169    0.7168   -7.8939 C   0  0  0  0  0  0
    8.6188    1.2427   -6.5364 C   0  0  0  0  0  0
    9.9683    1.9614   -6.5943 C   0  0  0  0  0  0
   10.3620    2.5966   -5.2493 C   0  0  0  0  0  0
   10.7369    1.6072   -4.2940 O   0  0  0  0  0  0
    9.9433    1.3907   -3.1862 C   0  0  0  0  0  0
   10.5873    0.8738   -2.0439 C   0  0  0  0  0  0
    9.8717    0.6419   -0.8546 C   0  0  0  0  0  0
   10.6864    0.0346    0.5395 Cl  0  0  0  0  0  0
    8.4914    0.9057   -0.8027 C   0  0  0  0  0  0
    7.8182    1.3801   -1.9469 C   0  0  0  0  0  0
    8.5464    1.6330   -3.1311 C   0  0  0  0  0  0
    6.3440    1.6338   -1.8788 C   0  0  0  0  0  0
    5.8808    2.3918   -1.0268 O   0  0  0  0  0  0
    5.5944    0.9340   -2.7493 N   0  0  0  0  0  0
    4.0327    0.6438   -0.6212 H   0  0  0  0  0  0
    3.8264    1.9677   -2.7926 H   0  0  0  0  0  0
    1.5160    6.6200    1.0120 H   0  0  0  0  0  0
    1.1801    5.0277    0.3619 H   0  0  0  0  0  0
    0.9655    5.3384    2.0823 H   0  0  0  0  0  0
   -0.8690    7.0154    2.8555 H   0  0  0  0  0  0
   -2.0068    7.6645    1.6809 H   0  0  0  0  0  0
   -0.3308    8.1969    1.6708 H   0  0  0  0  0  0
   -0.0960    7.5761   -0.7695 H   0  0  0  0  0  0
   -1.7742    7.0553   -0.8111 H   0  0  0  0  0  0
   -0.4985    5.9643   -1.3365 H   0  0  0  0  0  0
   -1.8135    4.9247    2.1330 H   0  0  0  0  0  0
   -2.5805    5.2472    0.6164 H   0  0  0  0  0  0
   -0.6810    2.4100    2.3161 H   0  0  0  0  0  0
   -1.0936   -0.2697    2.0865 H   0  0  0  0  0  0
    0.5249    0.3112    2.4659 H   0  0  0  0  0  0
    0.2960   -1.3231    1.8703 H   0  0  0  0  0  0
   -1.7505   -0.7845   -0.2869 H   0  0  0  0  0  0
   -0.3191   -1.7802   -0.5125 H   0  0  0  0  0  0
   -0.6776   -0.4765   -1.6345 H   0  0  0  0  0  0
    2.0416    0.7298    0.6769 H   0  0  0  0  0  0
    1.4556    0.0248   -2.1159 H   0  0  0  0  0  0
    1.8522    1.6114   -1.4763 H   0  0  0  0  0  0
    3.3390   -1.4776   -2.3398 H   0  0  0  0  0  0
    3.7466   -0.7824   -4.1055 H   0  0  0  0  0  0
    2.5119    0.4417   -4.1733 H   0  0  0  0  0  0
    5.5808   -0.8024   -5.6277 H   0  0  0  0  0  0
    5.8734    2.3337   -8.5732 H   0  0  0  0  0  0
    4.0559    3.5720   -7.4377 H   0  0  0  0  0  0
    3.0089    2.6534   -5.3817 H   0  0  0  0  0  0
    8.8589    0.0432   -8.3229 H   0  0  0  0  0  0
    7.9887    1.5288   -8.6101 H   0  0  0  0  0  0
    7.8873    1.9467   -6.1421 H   0  0  0  0  0  0
    8.6772    0.4148   -5.8291 H   0  0  0  0  0  0
   10.7475    1.2730   -6.9236 H   0  0  0  0  0  0
    9.9142    2.7479   -7.3478 H   0  0  0  0  0  0
   11.2461    3.2140   -5.4102 H   0  0  0  0  0  0
    9.5973    3.2859   -4.8901 H   0  0  0  0  0  0
   11.6483    0.6725   -2.0755 H   0  0  0  0  0  0
    7.9471    0.7232    0.1129 H   0  0  0  0  0  0
    8.0145    2.0185   -3.9845 H   0  0  0  0  0  0
    6.0729    0.3323   -3.4040 H   0  0  0  0  0  0
    1.8596   -0.8069    0.1538 H   0  0  0  0  0  0
  1  2  1  0  0  0
  1 44  1  0  0  0
  1 45  1  0  0  0
  1 46  1  0  0  0
  2  3  1  0  0  0
  2  4  1  0  0  0
  2  5  1  0  0  0
  3 47  1  0  0  0
  3 48  1  0  0  0
  3 49  1  0  0  0
  4 50  1  0  0  0
  4 51  1  0  0  0
  4 52  1  0  0  0
  5  6  1  0  0  0
  5 53  1  0  0  0
  5 54  1  0  0  0
  6 10  1  0  0  0
  6  7  2  0  0  0
  7  8  1  0  0  0
  7 55  1  0  0  0
  8  9  2  0  0  0
  8 11  1  0  0  0
  9 10  1  0  0  0
 11 12  1  0  0  0
 11 13  1  0  0  0
 11 14  1  0  0  0
 12 56  1  0  0  0
 12 57  1  0  0  0
 12 58  1  0  0  0
 13 59  1  0  0  0
 13 60  1  0  0  0
 13 61  1  0  0  0
 14 15  1  0  0  0
 14 62  1  0  0  0
 14 84  1  0  0  0
 15 16  1  0  0  0
 15 63  1  0  0  0
 15 64  1  0  0  0
 16 42  1  0  0  0
 16 17  1  0  0  0
 16 18  1  0  0  0
 17 65  1  0  0  0
 18 43  1  0  0  0
 18 41  1  0  0  0
 18 19  1  0  0  0
 19 20  1  0  0  0
 19 66  1  0  0  0
 19 67  1  0  0  0
 20 25  1  0  0  0
 20 21  2  0  0  0
 21 22  1  0  0  0
 21 68  1  0  0  0
 22 23  2  0  0  0
 22 26  1  0  0  0
 23 24  1  0  0  0
 23 69  1  0  0  0
 24 25  2  0  0  0
 24 70  1  0  0  0
 25 71  1  0  0  0
 26 27  1  0  0  0
 27 28  1  0  0  0
 27 72  1  0  0  0
 27 73  1  0  0  0
 28 29  1  0  0  0
 28 74  1  0  0  0
 28 75  1  0  0  0
 29 30  1  0  0  0
 29 76  1  0  0  0
 29 77  1  0  0  0
 30 31  1  0  0  0
 30 78  1  0  0  0
 30 79  1  0  0  0
 31 32  1  0  0  0
 32 38  1  0  0  0
 32 33  2  0  0  0
 33 34  1  0  0  0
 33 80  1  0  0  0
 34 35  1  0  0  0
 34 36  2  0  0  0
 36 37  1  0  0  0
 36 81  1  0  0  0
 37 38  2  0  0  0
 37 39  1  0  0  0
 38 82  1  0  0  0
 39 40  2  0  0  0
 39 41  1  0  0  0
 41 83  1  0  0  0
M  CHG  1  14   1
M  END
> <s_m_source_file>
BACE_96.smi

> <i_m_source_file_index>
1

> <i_lp_mmshare_version>
42013

> <i_f3d_flags>
0

> <s_epik_input>
W0NIM11DKFtDSDNdKShbQ0gzXSlbQ0gyXWMxW2NIXWMobm8xKUMoW0NIM10pKFtDSDNdKVtOSF1bQ0gyXVtDQEBIXShbT0hdKVtDQEhdKFtDSDJdMilbTkhdQyg9TyljKFtjSF0zKVtjSF1jKENsKVtjSF1jM09bQ0gyXVtDSDJdW0NIMl1bQ0gyXU9jKFtjSF1jMjQpW2NIXVtjSF1bY0hdNA==

> <s_epik_cmdline>
J2VwaWtfcHl0aG9uJywgJy1waCcsICc3LjAnLCAnLXRuJywgJzgnLCAnLW1hJywgJzIwMCcsICctaW1hZScsICc8aW5maWxlLm1hZT4nLCAnLW9tYWUnLCAnPG91dGZpbGUubWFlPic=

> <r_lp_tautomer_probability>
1

> <r_epik_Ionization_Penalty>
0.238594

> <r_epik_Ionization_Penalty_Charging>
0.238592

> <r_epik_Ionization_Penalty_Neutral>
2.10248e-06

> <r_epik_State_Penalty>
0.229495

> <r_epik_Charging_Adjusted_Penalty>
0.468086

> <i_epik_Tot_Q>
1

> <i_epik_Tot_abs_Q>
1

> <s_lp_Force_Field>
OPLS_2005

> <r_lp_Energy>
37.3862

> <b_lp_Chiralities_Consistent>
1

> <s_lp_Variant>
BACE_96.smi:1-1

$$$$
BACE_96.smi:1
                    3D
 Structure written by MMmdl.
 83 86  0  0  1  0            999 V2000
   -1.0789    5.4150    1.5173 C   0  0  0  0  0  0
   -2.2803    5.5842    0.5613 C   0  0  0  0  0  0
   -3.3240    6.4923    1.2404 C   0  0  0  0  0  0
   -1.7996    6.2732   -0.7313 C   0  0  0  0  0  0
   -2.9475    4.2230    0.2167 C   0  0  0  0  0  0
   -2.0181    3.0601    0.0673 C   0  0  0  0  0  0
   -1.7954    1.9457    0.8247 C   0  0  0  0  0  0
   -0.7493    1.2647    0.1378 C   0  0  0  0  0  0
   -0.3951    1.9204   -0.9603 N   0  0  0  0  0  0
   -1.1992    3.0625   -1.0136 O   0  0  0  0  0  0
   -0.0452   -0.0311    0.5071 C   0  0  0  0  0  0
   -0.4523   -0.4968    1.9239 C   0  0  0  0  0  0
   -0.4665   -1.1217   -0.4953 C   0  0  0  0  0  0
    1.4175    0.1234    0.4166 N   0  0  0  0  0  0
    2.0349    1.0576    1.3632 C   0  0  0  0  0  0
    3.5132    1.3082    1.0144 C   0  0  1  0  0  0
    3.5279    2.2353   -0.0542 O   0  0  0  0  0  0
    4.3017    1.8698    2.2258 C   0  0  2  0  0  0
    3.9018    3.3047    2.6823 C   0  0  0  0  0  0
    4.8089    3.8858    3.7588 C   0  0  0  0  0  0
    5.6981    4.9392    3.4488 C   0  0  0  0  0  0
    6.6194    5.4158    4.4156 C   0  0  0  0  0  0
    6.5879    4.8576    5.7099 C   0  0  0  0  0  0
    5.6769    3.8352    6.0356 C   0  0  0  0  0  0
    4.7925    3.3439    5.0591 C   0  0  0  0  0  0
    7.5780    6.3822    4.1889 O   0  0  0  0  0  0
    7.7396    6.9444    2.8900 C   0  0  0  0  0  0
    9.2020    7.3935    2.7106 C   0  0  0  0  0  0
   10.1548    6.2609    2.2754 C   0  0  0  0  0  0
   10.4535    5.2182    3.3717 C   0  0  0  0  0  0
   11.0542    4.0400    2.8366 O   0  0  0  0  0  0
   10.2259    3.0319    2.3821 C   0  0  0  0  0  0
   10.7863    1.7487    2.2148 C   0  0  0  0  0  0
    9.9900    0.6632    1.7963 C   0  0  0  0  0  0
   10.6934   -0.9019    1.6180 Cl  0  0  0  0  0  0
    8.6202    0.8513    1.5274 C   0  0  0  0  0  0
    8.0513    2.1341    1.6611 C   0  0  0  0  0  0
    8.8537    3.2123    2.0831 C   0  0  0  0  0  0
    6.6072    2.3796    1.3614 C   0  0  0  0  0  0
    6.2732    3.2619    0.5713 O   0  0  0  0  0  0
    5.7481    1.6543    2.0964 N   0  0  0  0  0  0
    3.9759    0.3754    0.6874 H   0  0  0  0  0  0
    4.0626    1.2192    3.0678 H   0  0  0  0  0  0
   -0.6742    6.3822    1.8178 H   0  0  0  0  0  0
   -0.2618    4.8599    1.0545 H   0  0  0  0  0  0
   -1.3676    4.8849    2.4255 H   0  0  0  0  0  0
   -3.6782    6.0625    2.1780 H   0  0  0  0  0  0
   -4.1931    6.6447    0.5996 H   0  0  0  0  0  0
   -2.9094    7.4749    1.4688 H   0  0  0  0  0  0
   -1.3604    7.2489   -0.5213 H   0  0  0  0  0  0
   -2.6221    6.4298   -1.4301 H   0  0  0  0  0  0
   -1.0417    5.6812   -1.2447 H   0  0  0  0  0  0
   -3.6519    3.9674    1.0093 H   0  0  0  0  0  0
   -3.5591    4.3188   -0.6813 H   0  0  0  0  0  0
   -2.2942    1.6725    1.7423 H   0  0  0  0  0  0
   -1.5177   -0.7252    1.9741 H   0  0  0  0  0  0
   -0.2545    0.2625    2.6810 H   0  0  0  0  0  0
    0.0848   -1.4004    2.2143 H   0  0  0  0  0  0
   -1.5462   -1.2757   -0.4839 H   0  0  0  0  0  0
    0.0033   -2.0781   -0.2628 H   0  0  0  0  0  0
   -0.1847   -0.8605   -1.5163 H   0  0  0  0  0  0
    1.6623    0.3975   -0.5301 H   0  0  0  0  0  0
    1.4964    2.0057    1.3921 H   0  0  0  0  0  0
    1.9718    0.6381    2.3671 H   0  0  0  0  0  0
    4.4279    2.4331   -0.2667 H   0  0  0  0  0  0
    3.9005    3.9868    1.8319 H   0  0  0  0  0  0
    2.8780    3.3011    3.0573 H   0  0  0  0  0  0
    5.6739    5.3395    2.4480 H   0  0  0  0  0  0
    7.2786    5.2118    6.4612 H   0  0  0  0  0  0
    5.6692    3.4161    7.0309 H   0  0  0  0  0  0
    4.1127    2.5415    5.3052 H   0  0  0  0  0  0
    7.4947    6.2667    2.0747 H   0  0  0  0  0  0
    7.0709    7.8020    2.8093 H   0  0  0  0  0  0
    9.2229    8.1556    1.9311 H   0  0  0  0  0  0
    9.5669    7.8816    3.6150 H   0  0  0  0  0  0
    9.7457    5.7798    1.3875 H   0  0  0  0  0  0
   11.1012    6.6951    1.9519 H   0  0  0  0  0  0
   11.1494    5.6517    4.0901 H   0  0  0  0  0  0
    9.5723    4.9552    3.9547 H   0  0  0  0  0  0
   11.8338    1.5926    2.4277 H   0  0  0  0  0  0
    8.0155    0.0155    1.2051 H   0  0  0  0  0  0
    8.3848    4.1763    2.1889 H   0  0  0  0  0  0
    6.1476    0.9635    2.7150 H   0  0  0  0  0  0
  1  2  1  0  0  0
  1 44  1  0  0  0
  1 45  1  0  0  0
  1 46  1  0  0  0
  2  3  1  0  0  0
  2  4  1  0  0  0
  2  5  1  0  0  0
  3 47  1  0  0  0
  3 48  1  0  0  0
  3 49  1  0  0  0
  4 50  1  0  0  0
  4 51  1  0  0  0
  4 52  1  0  0  0
  5  6  1  0  0  0
  5 53  1  0  0  0
  5 54  1  0  0  0
  6 10  1  0  0  0
  6  7  2  0  0  0
  7  8  1  0  0  0
  7 55  1  0  0  0
  8  9  2  0  0  0
  8 11  1  0  0  0
  9 10  1  0  0  0
 11 12  1  0  0  0
 11 13  1  0  0  0
 11 14  1  0  0  0
 12 56  1  0  0  0
 12 57  1  0  0  0
 12 58  1  0  0  0
 13 59  1  0  0  0
 13 60  1  0  0  0
 13 61  1  0  0  0
 14 15  1  0  0  0
 14 62  1  0  0  0
 15 16  1  0  0  0
 15 63  1  0  0  0
 15 64  1  0  0  0
 16 42  1  0  0  0
 16 17  1  0  0  0
 16 18  1  0  0  0
 17 65  1  0  0  0
 18 43  1  0  0  0
 18 41  1  0  0  0
 18 19  1  0  0  0
 19 20  1  0  0  0
 19 66  1  0  0  0
 19 67  1  0  0  0
 20 25  1  0  0  0
 20 21  2  0  0  0
 21 22  1  0  0  0
 21 68  1  0  0  0
 22 23  2  0  0  0
 22 26  1  0  0  0
 23 24  1  0  0  0
 23 69  1  0  0  0
 24 25  2  0  0  0
 24 70  1  0  0  0
 25 71  1  0  0  0
 26 27  1  0  0  0
 27 28  1  0  0  0
 27 72  1  0  0  0
 27 73  1  0  0  0
 28 29  1  0  0  0
 28 74  1  0  0  0
 28 75  1  0  0  0
 29 30  1  0  0  0
 29 76  1  0  0  0
 29 77  1  0  0  0
 30 31  1  0  0  0
 30 78  1  0  0  0
 30 79  1  0  0  0
 31 32  1  0  0  0
 32 38  1  0  0  0
 32 33  2  0  0  0
 33 34  1  0  0  0
 33 80  1  0  0  0
 34 35  1  0  0  0
 34 36  2  0  0  0
 36 37  1  0  0  0
 36 81  1  0  0  0
 37 38  2  0  0  0
 37 39  1  0  0  0
 38 82  1  0  0  0
 39 40  2  0  0  0
 39 41  1  0  0  0
 41 83  1  0  0  0
M  END
> <s_m_source_file>
BACE_96.smi

> <i_m_source_file_index>
1

> <i_lp_mmshare_version>
42013

> <i_f3d_flags>
0

> <s_epik_input>
W0NIM11DKFtDSDNdKShbQ0gzXSlbQ0gyXWMxW2NIXWMobm8xKUMoW0NIM10pKFtDSDNdKVtOSF1bQ0gyXVtDQEBIXShbT0hdKVtDQEhdKFtDSDJdMilbTkhdQyg9TyljKFtjSF0zKVtjSF1jKENsKVtjSF1jM09bQ0gyXVtDSDJdW0NIMl1bQ0gyXU9jKFtjSF1jMjQpW2NIXVtjSF1bY0hdNA==

> <s_epik_cmdline>
J2VwaWtfcHl0aG9uJywgJy1waCcsICc3LjAnLCAnLXRuJywgJzgnLCAnLW1hJywgJzIwMCcsICctaW1hZScsICc8aW5maWxlLm1hZT4nLCAnLW9tYWUnLCAnPG91dGZpbGUubWFlPic=

> <r_lp_tautomer_probability>
1

> <r_epik_Ionization_Penalty>
0.654207

> <r_epik_Ionization_Penalty_Charging>
0

> <r_epik_Ionization_Penalty_Neutral>
0.654207

> <r_epik_State_Penalty>
0.67299

> <r_epik_Charging_Adjusted_Penalty>
0.67299

> <i_epik_Tot_Q>
0

> <i_epik_Tot_abs_Q>
0

> <s_lp_Force_Field>
OPLS_2005

> <r_lp_Energy>
41.8767

> <b_lp_Chiralities_Consistent>
1

> <s_lp_Variant>
BACE_96.smi:1-2

$$$$
