BACE_43.smi:1
                    3D
 Structure written by MMmdl.
 84 86  0  0  1  0            999 V2000
   -1.7662    0.3890    5.2277 C   0  0  0  0  0  0
   -0.7588    0.9493    4.3939 O   0  0  0  0  0  0
   -1.1511    1.7062    3.3098 C   0  0  0  0  0  0
   -0.1564    2.2531    2.4785 C   0  0  0  0  0  0
   -0.5461    3.0085    1.3551 C   0  0  0  0  0  0
   -1.9236    3.2116    1.1269 C   0  0  0  0  0  0
   -2.8583    2.6416    2.0246 C   0  0  0  0  0  0
   -4.2454    2.8095    1.8972 N   0  0  0  0  0  0
   -4.8117    3.8510    1.0501 C   0  0  0  0  0  0
   -5.4302    3.2794   -0.2363 C   0  0  0  0  0  0
   -5.6824    4.3683   -1.2934 C   0  0  0  0  0  0
   -4.4590    4.5878   -2.2006 C   0  0  0  0  0  0
   -4.4958    3.7225   -3.4736 C   0  0  0  0  0  0
   -3.1011    3.4304   -4.0535 C   0  0  0  0  0  0
   -2.6071    2.0166   -3.6895 C   0  0  0  0  0  0
   -1.1138    1.7315   -3.9730 C   0  0  1  0  0  0
   -0.7612    1.9569   -5.4528 C   0  0  0  0  0  0
   -0.1304    2.4953   -3.0480 C   0  0  0  0  0  0
   -0.2534    2.2157   -1.5295 C   0  0  2  0  0  0
    0.5509    3.2241   -0.8290 N   0  0  0  0  0  0
    0.4957    3.6138    0.4601 C   0  0  0  0  0  0
    1.3078    4.4104    0.9239 O   0  0  0  0  0  0
    0.1384    0.7480   -1.1547 C   0  0  2  0  0  0
   -0.8868    0.2048   -0.3443 O   0  0  0  0  0  0
    1.4996    0.5449   -0.4569 C   0  0  0  0  0  0
    1.8043   -0.8905   -0.2757 N   0  3  0  0  0  0
    3.0151   -1.1762    0.5233 C   0  0  0  0  0  0
    2.8687   -0.7098    1.9619 C   0  0  0  0  0  0
    3.5216    0.4624    2.3984 C   0  0  0  0  0  0
    3.3681    0.9172    3.7265 C   0  0  0  0  0  0
    2.5515    0.1872    4.6165 C   0  0  0  0  0  0
    1.9011   -0.9849    4.1857 C   0  0  0  0  0  0
    2.0601   -1.4344    2.8615 C   0  0  0  0  0  0
    4.0693    2.1847    4.1995 C   0  0  0  0  0  0
    3.5313    3.4327    3.4825 C   0  0  0  0  0  0
    5.5970    2.0721    4.0719 C   0  0  0  0  0  0
   -2.4744    1.8950    3.0825 N   0  0  0  0  0  0
   -0.9771    0.6648   -3.8037 H   0  0  0  0  0  0
   -1.2928    2.3965   -1.2704 H   0  0  0  0  0  0
    0.1535    0.1345   -2.0535 H   0  0  0  0  0  0
   -1.2938   -0.1835    6.0257 H   0  0  0  0  0  0
   -2.4125   -0.2909    4.6710 H   0  0  0  0  0  0
   -2.3766    1.1645    5.6926 H   0  0  0  0  0  0
    0.8868    2.0805    2.6961 H   0  0  0  0  0  0
   -2.2371    3.8001    0.2786 H   0  0  0  0  0  0
   -4.8399    2.4090    2.6088 H   0  0  0  0  0  0
   -5.5884    4.3599    1.6213 H   0  0  0  0  0  0
   -4.0778    4.6223    0.8225 H   0  0  0  0  0  0
   -4.7915    2.5019   -0.6586 H   0  0  0  0  0  0
   -6.3710    2.7896    0.0171 H   0  0  0  0  0  0
   -6.5471    4.1043   -1.9037 H   0  0  0  0  0  0
   -5.9502    5.3018   -0.7967 H   0  0  0  0  0  0
   -4.4040    5.6364   -2.4955 H   0  0  0  0  0  0
   -3.5479    4.3943   -1.6332 H   0  0  0  0  0  0
   -5.0124    2.7812   -3.2798 H   0  0  0  0  0  0
   -5.1022    4.2361   -4.2207 H   0  0  0  0  0  0
   -3.1444    3.5162   -5.1398 H   0  0  0  0  0  0
   -2.3965    4.1932   -3.7233 H   0  0  0  0  0  0
   -2.8331    1.8067   -2.6451 H   0  0  0  0  0  0
   -3.2079    1.2968   -4.2471 H   0  0  0  0  0  0
   -0.8152    3.0118   -5.7228 H   0  0  0  0  0  0
   -1.4395    1.4090   -6.1074 H   0  0  0  0  0  0
    0.2506    1.6144   -5.6709 H   0  0  0  0  0  0
    0.8915    2.2683   -3.3557 H   0  0  0  0  0  0
   -0.2501    3.5647   -3.2253 H   0  0  0  0  0  0
    1.2646    3.6670   -1.3895 H   0  0  0  0  0  0
   -0.9910    0.7498    0.4218 H   0  0  0  0  0  0
    2.2984    0.9984   -1.0454 H   0  0  0  0  0  0
    1.4987    1.0327    0.5146 H   0  0  0  0  0  0
    1.0152   -1.3215    0.1851 H   0  0  0  0  0  0
    3.1933   -2.2520    0.5158 H   0  0  0  0  0  0
    3.8832   -0.7094    0.0556 H   0  0  0  0  0  0
    4.1353    1.0214    1.7074 H   0  0  0  0  0  0
    2.4168    0.5231    5.6342 H   0  0  0  0  0  0
    1.2746   -1.5360    4.8715 H   0  0  0  0  0  0
    1.5521   -2.3307    2.5366 H   0  0  0  0  0  0
    3.8488    2.3070    5.2607 H   0  0  0  0  0  0
    2.4607    3.5509    3.6504 H   0  0  0  0  0  0
    3.6978    3.3834    2.4061 H   0  0  0  0  0  0
    4.0189    4.3357    3.8509 H   0  0  0  0  0  0
    5.9729    1.2097    4.6232 H   0  0  0  0  0  0
    6.0888    2.9579    4.4745 H   0  0  0  0  0  0
    5.9109    1.9669    3.0331 H   0  0  0  0  0  0
    1.9103   -1.3111   -1.1876 H   0  0  0  0  0  0
  1  2  1  0  0  0
  1 41  1  0  0  0
  1 42  1  0  0  0
  1 43  1  0  0  0
  2  3  1  0  0  0
  3 37  1  0  0  0
  3  4  2  0  0  0
  4  5  1  0  0  0
  4 44  1  0  0  0
  5 21  1  0  0  0
  5  6  2  0  0  0
  6  7  1  0  0  0
  6 45  1  0  0  0
  7  8  1  0  0  0
  7 37  2  0  0  0
  8  9  1  0  0  0
  8 46  1  0  0  0
  9 10  1  0  0  0
  9 47  1  0  0  0
  9 48  1  0  0  0
 10 11  1  0  0  0
 10 49  1  0  0  0
 10 50  1  0  0  0
 11 12  1  0  0  0
 11 51  1  0  0  0
 11 52  1  0  0  0
 12 13  1  0  0  0
 12 53  1  0  0  0
 12 54  1  0  0  0
 13 14  1  0  0  0
 13 55  1  0  0  0
 13 56  1  0  0  0
 14 15  1  0  0  0
 14 57  1  0  0  0
 14 58  1  0  0  0
 15 16  1  0  0  0
 15 59  1  0  0  0
 15 60  1  0  0  0
 16 38  1  0  0  0
 16 17  1  0  0  0
 16 18  1  0  0  0
 17 61  1  0  0  0
 17 62  1  0  0  0
 17 63  1  0  0  0
 18 19  1  0  0  0
 18 64  1  0  0  0
 18 65  1  0  0  0
 19 39  1  0  0  0
 19 20  1  0  0  0
 19 23  1  0  0  0
 20 21  1  0  0  0
 20 66  1  0  0  0
 21 22  2  0  0  0
 23 40  1  0  0  0
 23 24  1  0  0  0
 23 25  1  0  0  0
 24 67  1  0  0  0
 25 26  1  0  0  0
 25 68  1  0  0  0
 25 69  1  0  0  0
 26 27  1  0  0  0
 26 70  1  0  0  0
 26 84  1  0  0  0
 27 28  1  0  0  0
 27 71  1  0  0  0
 27 72  1  0  0  0
 28 33  1  0  0  0
 28 29  2  0  0  0
 29 30  1  0  0  0
 29 73  1  0  0  0
 30 31  2  0  0  0
 30 34  1  0  0  0
 31 32  1  0  0  0
 31 74  1  0  0  0
 32 33  2  0  0  0
 32 75  1  0  0  0
 33 76  1  0  0  0
 34 35  1  0  0  0
 34 36  1  0  0  0
 34 77  1  0  0  0
 35 78  1  0  0  0
 35 79  1  0  0  0
 35 80  1  0  0  0
 36 81  1  0  0  0
 36 82  1  0  0  0
 36 83  1  0  0  0
M  CHG  1  26   1
M  END
> <s_m_source_file>
BACE_43.smi

> <i_m_source_file_index>
1

> <i_lp_mmshare_version>
42013

> <i_f3d_flags>
0

> <s_epik_input>
W0NIM11PYyhbY0hdYzEyKW5jKFtjSF0xKVtOSF1bQ0gyXVtDSDJdW0NIMl1bQ0gyXVtDSDJdW0NIMl1bQ0gyXVtDQEBIXShbQ0gzXSlbQ0gyXVtDQEhdKFtOSF1DMj1PKVtDQEhdKFtPSF0pW0NIMl1bTkhdW0NIMl1jM1tjSF1jKFtDSF0oW0NIM10pW0NIM10pW2NIXVtjSF1bY0hdMw==

> <s_epik_cmdline>
J2VwaWtfcHl0aG9uJywgJy1waCcsICc3LjAnLCAnLXRuJywgJzgnLCAnLW1hJywgJzIwMCcsICctaW1hZScsICc8aW5maWxlLm1hZT4nLCAnLW9tYWUnLCAnPG91dGZpbGUubWFlPic=

> <r_lp_tautomer_probability>
1

> <r_epik_Ionization_Penalty>
0.0173553

> <r_epik_Ionization_Penalty_Charging>
0.017325

> <r_epik_Ionization_Penalty_Neutral>
3.0309e-05

> <r_epik_State_Penalty>
0.0137253

> <r_epik_Charging_Adjusted_Penalty>
0.0310503

> <i_epik_Tot_Q>
1

> <i_epik_Tot_abs_Q>
1

> <s_lp_Force_Field>
OPLS_2005

> <r_lp_Energy>
29.7454

> <b_lp_Chiralities_Consistent>
1

> <s_lp_Variant>
BACE_43.smi:1-1

$$$$
BACE_43.smi:1
                    3D
 Structure written by MMmdl.
 83 85  0  0  1  0            999 V2000
   -5.1710   -0.4191    4.6593 C   0  0  0  0  0  0
   -3.8294    0.0269    4.4950 O   0  0  0  0  0  0
   -3.5534    0.9087    3.4702 C   0  0  0  0  0  0
   -2.2293    1.3595    3.3095 C   0  0  0  0  0  0
   -1.9363    2.2485    2.2560 C   0  0  0  0  0  0
   -2.9940    2.6790    1.4263 C   0  0  0  0  0  0
   -4.2994    2.1910    1.6714 C   0  0  0  0  0  0
   -5.4149    2.5845    0.9175 N   0  0  0  0  0  0
   -5.4218    3.8694    0.2302 C   0  0  0  0  0  0
   -5.4769    3.7086   -1.2972 C   0  0  0  0  0  0
   -5.1051    5.0090   -2.0302 C   0  0  0  0  0  0
   -3.5869    5.1364   -2.2499 C   0  0  0  0  0  0
   -3.1211    4.5231   -3.5840 C   0  0  0  0  0  0
   -1.6799    3.9891   -3.5423 C   0  0  0  0  0  0
   -1.6283    2.5013   -3.1407 C   0  0  0  0  0  0
   -0.2217    1.9254   -2.8500 C   0  0  1  0  0  0
    0.7594    2.1880   -4.0050 C   0  0  0  0  0  0
    0.3698    2.3863   -1.4946 C   0  0  0  0  0  0
   -0.2979    1.7795   -0.2362 C   0  0  2  0  0  0
    0.0884    2.6093    0.9096 N   0  0  0  0  0  0
   -0.5431    2.7806    2.0864 C   0  0  0  0  0  0
    0.0050    3.3530    3.0260 O   0  0  0  0  0  0
    0.0956    0.2858   -0.0218 C   0  0  2  0  0  0
   -1.0190   -0.3951    0.5190 O   0  0  0  0  0  0
    1.3243    0.0433    0.8799 C   0  0  0  0  0  0
    1.8932   -1.2819    0.6563 N   0  0  0  0  0  0
    3.0345   -1.5684    1.5171 C   0  0  0  0  0  0
    3.6209   -2.9362    1.2362 C   0  0  0  0  0  0
    4.7998   -3.0587    0.4721 C   0  0  0  0  0  0
    5.3482   -4.3320    0.2008 C   0  0  0  0  0  0
    4.7028   -5.4838    0.7004 C   0  0  0  0  0  0
    3.5241   -5.3645    1.4614 C   0  0  0  0  0  0
    2.9830   -4.0928    1.7290 C   0  0  0  0  0  0
    6.6239   -4.4689   -0.6212 C   0  0  0  0  0  0
    7.8224   -3.8099    0.0794 C   0  0  0  0  0  0
    6.4395   -3.9352   -2.0505 C   0  0  0  0  0  0
   -4.5653    1.3147    2.6634 N   0  0  0  0  0  0
   -0.3427    0.8439   -2.8110 H   0  0  0  0  0  0
   -1.3707    1.8451   -0.3884 H   0  0  0  0  0  0
    0.2832   -0.1754   -0.9904 H   0  0  0  0  0  0
   -5.2230   -1.0995    5.5091 H   0  0  0  0  0  0
   -5.5215   -0.9608    3.7797 H   0  0  0  0  0  0
   -5.8470    0.4131    4.8612 H   0  0  0  0  0  0
   -1.4533    1.0207    3.9806 H   0  0  0  0  0  0
   -2.7914    3.3727    0.6245 H   0  0  0  0  0  0
   -6.3106    2.2100    1.1954 H   0  0  0  0  0  0
   -6.3019    4.4208    0.5618 H   0  0  0  0  0  0
   -4.5747    4.4869    0.5240 H   0  0  0  0  0  0
   -4.8156    2.9041   -1.6236 H   0  0  0  0  0  0
   -6.4848    3.4022   -1.5793 H   0  0  0  0  0  0
   -5.6187    5.0577   -2.9913 H   0  0  0  0  0  0
   -5.4715    5.8631   -1.4591 H   0  0  0  0  0  0
   -3.3013    6.1889   -2.2351 H   0  0  0  0  0  0
   -3.0584    4.6791   -1.4126 H   0  0  0  0  0  0
   -3.7912    3.7191   -3.8925 H   0  0  0  0  0  0
   -3.2053    5.2853   -4.3595 H   0  0  0  0  0  0
   -1.2393    4.0981   -4.5338 H   0  0  0  0  0  0
   -1.0762    4.6044   -2.8752 H   0  0  0  0  0  0
   -2.2823    2.3369   -2.2858 H   0  0  0  0  0  0
   -2.0751    1.9209   -3.9490 H   0  0  0  0  0  0
    1.0061    3.2465   -4.0913 H   0  0  0  0  0  0
    0.3421    1.8615   -4.9579 H   0  0  0  0  0  0
    1.6935    1.6457   -3.8552 H   0  0  0  0  0  0
    1.4334    2.1450   -1.4635 H   0  0  0  0  0  0
    0.3234    3.4747   -1.4482 H   0  0  0  0  0  0
    1.0058    3.0251    0.8426 H   0  0  0  0  0  0
   -0.8124   -1.3157    0.5692 H   0  0  0  0  0  0
    2.0871    0.7904    0.6574 H   0  0  0  0  0  0
    1.0569    0.1745    1.9296 H   0  0  0  0  0  0
    1.1757   -1.9825    0.8116 H   0  0  0  0  0  0
    3.8089   -0.8123    1.3813 H   0  0  0  0  0  0
    2.7367   -1.5250    2.5655 H   0  0  0  0  0  0
    5.2840   -2.1707    0.0926 H   0  0  0  0  0  0
    5.1079   -6.4653    0.5025 H   0  0  0  0  0  0
    3.0345   -6.2496    1.8402 H   0  0  0  0  0  0
    2.0777   -4.0067    2.3121 H   0  0  0  0  0  0
    6.8497   -5.5329   -0.7053 H   0  0  0  0  0  0
    7.9747   -4.2322    1.0732 H   0  0  0  0  0  0
    7.6828   -2.7345    0.1921 H   0  0  0  0  0  0
    8.7404   -3.9652   -0.4877 H   0  0  0  0  0  0
    5.6210   -4.4477   -2.5571 H   0  0  0  0  0  0
    7.3409   -4.0889   -2.6444 H   0  0  0  0  0  0
    6.2194   -2.8674   -2.0572 H   0  0  0  0  0  0
  1  2  1  0  0  0
  1 41  1  0  0  0
  1 42  1  0  0  0
  1 43  1  0  0  0
  2  3  1  0  0  0
  3 37  1  0  0  0
  3  4  2  0  0  0
  4  5  1  0  0  0
  4 44  1  0  0  0
  5 21  1  0  0  0
  5  6  2  0  0  0
  6  7  1  0  0  0
  6 45  1  0  0  0
  7  8  1  0  0  0
  7 37  2  0  0  0
  8  9  1  0  0  0
  8 46  1  0  0  0
  9 10  1  0  0  0
  9 47  1  0  0  0
  9 48  1  0  0  0
 10 11  1  0  0  0
 10 49  1  0  0  0
 10 50  1  0  0  0
 11 12  1  0  0  0
 11 51  1  0  0  0
 11 52  1  0  0  0
 12 13  1  0  0  0
 12 53  1  0  0  0
 12 54  1  0  0  0
 13 14  1  0  0  0
 13 55  1  0  0  0
 13 56  1  0  0  0
 14 15  1  0  0  0
 14 57  1  0  0  0
 14 58  1  0  0  0
 15 16  1  0  0  0
 15 59  1  0  0  0
 15 60  1  0  0  0
 16 38  1  0  0  0
 16 17  1  0  0  0
 16 18  1  0  0  0
 17 61  1  0  0  0
 17 62  1  0  0  0
 17 63  1  0  0  0
 18 19  1  0  0  0
 18 64  1  0  0  0
 18 65  1  0  0  0
 19 39  1  0  0  0
 19 20  1  0  0  0
 19 23  1  0  0  0
 20 21  1  0  0  0
 20 66  1  0  0  0
 21 22  2  0  0  0
 23 40  1  0  0  0
 23 24  1  0  0  0
 23 25  1  0  0  0
 24 67  1  0  0  0
 25 26  1  0  0  0
 25 68  1  0  0  0
 25 69  1  0  0  0
 26 27  1  0  0  0
 26 70  1  0  0  0
 27 28  1  0  0  0
 27 71  1  0  0  0
 27 72  1  0  0  0
 28 33  1  0  0  0
 28 29  2  0  0  0
 29 30  1  0  0  0
 29 73  1  0  0  0
 30 31  2  0  0  0
 30 34  1  0  0  0
 31 32  1  0  0  0
 31 74  1  0  0  0
 32 33  2  0  0  0
 32 75  1  0  0  0
 33 76  1  0  0  0
 34 35  1  0  0  0
 34 36  1  0  0  0
 34 77  1  0  0  0
 35 78  1  0  0  0
 35 79  1  0  0  0
 35 80  1  0  0  0
 36 81  1  0  0  0
 36 82  1  0  0  0
 36 83  1  0  0  0
M  END
> <s_m_source_file>
BACE_43.smi

> <i_m_source_file_index>
1

> <i_lp_mmshare_version>
42013

> <i_f3d_flags>
0

> <s_epik_input>
W0NIM11PYyhbY0hdYzEyKW5jKFtjSF0xKVtOSF1bQ0gyXVtDSDJdW0NIMl1bQ0gyXVtDSDJdW0NIMl1bQ0gyXVtDQEBIXShbQ0gzXSlbQ0gyXVtDQEhdKFtOSF1DMj1PKVtDQEhdKFtPSF0pW0NIMl1bTkhdW0NIMl1jM1tjSF1jKFtDSF0oW0NIM10pW0NIM10pW2NIXVtjSF1bY0hdMw==

> <s_epik_cmdline>
J2VwaWtfcHl0aG9uJywgJy1waCcsICc3LjAnLCAnLXRuJywgJzgnLCAnLW1hJywgJzIwMCcsICctaW1hZScsICc8aW5maWxlLm1hZT4nLCAnLW9tYWUnLCAnPG91dGZpbGUubWFlPic=

> <r_lp_tautomer_probability>
1

> <r_epik_Ionization_Penalty>
2.10144

> <r_epik_Ionization_Penalty_Charging>
0

> <r_epik_Ionization_Penalty_Neutral>
2.10144

> <r_epik_State_Penalty>
2.23761

> <r_epik_Charging_Adjusted_Penalty>
2.23761

> <i_epik_Tot_Q>
0

> <i_epik_Tot_abs_Q>
0

> <s_lp_Force_Field>
OPLS_2005

> <r_lp_Energy>
43.2585

> <b_lp_Chiralities_Consistent>
1

> <s_lp_Variant>
BACE_43.smi:1-2

$$$$
