BACE_106.smi:1
                    3D
 Structure written by MMmdl.
 83 86  0  0  1  0            999 V2000
   -0.3913    3.9862   -3.6494 C   0  0  0  0  0  0
   -0.2366    4.4797   -2.2024 C   0  0  0  0  0  0
    1.2260    4.8158   -1.8693 C   0  0  0  0  0  0
   -0.8209    3.4906   -1.2021 C   0  0  0  0  0  0
   -1.8804    3.8815   -0.3589 C   0  0  0  0  0  0
   -2.4049    2.9760    0.5806 C   0  0  0  0  0  0
   -1.8720    1.6778    0.6892 C   0  0  0  0  0  0
   -0.8078    1.2640   -0.1483 C   0  0  0  0  0  0
   -0.3006    2.1829   -1.0976 C   0  0  0  0  0  0
   -0.1732   -0.1349   -0.0445 C   0  0  0  0  0  0
   -0.7155   -0.9743    1.1363 C   0  0  0  0  0  0
   -0.4644   -0.9148   -1.3413 C   0  0  0  0  0  0
    1.3021   -0.0077    0.0892 N   0  3  0  0  0  0
    1.8177    0.7656    1.2446 C   0  0  0  0  0  0
    3.3164    1.0650    1.0712 C   0  0  1  0  0  0
    3.4652    1.9563   -0.0194 O   0  0  0  0  0  0
    3.9559    1.6714    2.3486 C   0  0  2  0  0  0
    3.4690    3.1049    2.6963 C   0  0  0  0  0  0
    4.2300    3.7663    3.8376 C   0  0  0  0  0  0
    3.7838    3.6302    5.1684 C   0  0  0  0  0  0
    4.5025    4.2324    6.2205 C   0  0  0  0  0  0
    5.6773    4.9624    5.9510 C   0  0  0  0  0  0
    6.1308    5.1011    4.6235 C   0  0  0  0  0  0
    7.4308    5.8237    4.3141 C   0  0  0  0  0  0
    8.5762    4.8211    4.0997 C   0  0  0  0  0  0
    9.7408    5.3548    3.2463 C   0  0  0  0  0  0
   10.7412    4.2678    2.7990 C   0  0  0  0  0  0
   10.1405    3.4006    1.8323 O   0  0  0  0  0  0
    9.5934    2.2264    2.2971 C   0  0  0  0  0  0
    8.2532    1.9242    1.9837 C   0  0  0  0  0  0
    7.6498    0.8006    2.5922 C   0  0  0  0  0  0
    8.4571   -0.0358    3.3931 C   0  0  0  0  0  0
    9.8060    0.3212    3.5995 C   0  0  0  0  0  0
   10.7119   -0.5344    4.4595 C   0  0  0  0  0  0
   10.3630    1.4378    3.0826 N   0  0  0  0  0  0
    6.1838    0.5195    2.4321 C   0  0  0  0  0  0
    5.7351   -0.6230    2.5304 O   0  0  0  0  0  0
    5.4162    1.6127    2.2872 N   0  0  0  0  0  0
    5.3951    4.5162    3.5710 C   0  0  0  0  0  0
    3.8198    0.1322    0.8142 H   0  0  0  0  0  0
    3.6755    1.0373    3.1921 H   0  0  0  0  0  0
   -1.4381    3.7949   -3.8878 H   0  0  0  0  0  0
    0.1645    3.0650   -3.8250 H   0  0  0  0  0  0
   -0.0252    4.7305   -4.3570 H   0  0  0  0  0  0
   -0.8046    5.4077   -2.1208 H   0  0  0  0  0  0
    1.3157    5.2137   -0.8579 H   0  0  0  0  0  0
    1.6206    5.5674   -2.5535 H   0  0  0  0  0  0
    1.8679    3.9372   -1.9392 H   0  0  0  0  0  0
   -2.2935    4.8776   -0.4251 H   0  0  0  0  0  0
   -3.2162    3.2804    1.2253 H   0  0  0  0  0  0
   -2.3004    1.0184    1.4279 H   0  0  0  0  0  0
    0.5145    1.8888   -1.7424 H   0  0  0  0  0  0
   -1.7792   -1.1862    1.0217 H   0  0  0  0  0  0
   -0.5828   -0.4736    2.0957 H   0  0  0  0  0  0
   -0.2068   -1.9369    1.2014 H   0  0  0  0  0  0
   -1.5376   -1.0259   -1.5016 H   0  0  0  0  0  0
   -0.0340   -1.9165   -1.3089 H   0  0  0  0  0  0
   -0.0535   -0.4157   -2.2194 H   0  0  0  0  0  0
    1.7049   -0.9333    0.1195 H   0  0  0  0  0  0
    1.2687    1.6983    1.3726 H   0  0  0  0  0  0
    1.6628    0.1799    2.1508 H   0  0  0  0  0  0
    3.0822    2.7887    0.2137 H   0  0  0  0  0  0
    3.5583    3.7586    1.8284 H   0  0  0  0  0  0
    2.4079    3.0888    2.9468 H   0  0  0  0  0  0
    2.8924    3.0608    5.3873 H   0  0  0  0  0  0
    4.1583    4.1240    7.2385 H   0  0  0  0  0  0
    6.2341    5.4023    6.7656 H   0  0  0  0  0  0
    7.2750    6.4178    3.4130 H   0  0  0  0  0  0
    7.6802    6.5270    5.1093 H   0  0  0  0  0  0
    8.9354    4.4410    5.0565 H   0  0  0  0  0  0
    8.1486    3.9675    3.5868 H   0  0  0  0  0  0
    9.3497    5.8517    2.3578 H   0  0  0  0  0  0
   10.2703    6.1206    3.8137 H   0  0  0  0  0  0
   11.5888    4.7494    2.3112 H   0  0  0  0  0  0
   11.1528    3.7501    3.6659 H   0  0  0  0  0  0
    7.6875    2.6001    1.3587 H   0  0  0  0  0  0
    8.0468   -0.9175    3.8643 H   0  0  0  0  0  0
   10.2349   -1.4811    4.7144 H   0  0  0  0  0  0
   10.9553   -0.0141    5.3861 H   0  0  0  0  0  0
   11.6413   -0.7548    3.9335 H   0  0  0  0  0  0
    5.8933    2.5012    2.2325 H   0  0  0  0  0  0
    5.7473    4.6151    2.5542 H   0  0  0  0  0  0
    1.6362    0.4527   -0.7456 H   0  0  0  0  0  0
  1  2  1  0  0  0
  1 42  1  0  0  0
  1 43  1  0  0  0
  1 44  1  0  0  0
  2  3  1  0  0  0
  2  4  1  0  0  0
  2 45  1  0  0  0
  3 46  1  0  0  0
  3 47  1  0  0  0
  3 48  1  0  0  0
  4  9  1  0  0  0
  4  5  2  0  0  0
  5  6  1  0  0  0
  5 49  1  0  0  0
  6  7  2  0  0  0
  6 50  1  0  0  0
  7  8  1  0  0  0
  7 51  1  0  0  0
  8  9  2  0  0  0
  8 10  1  0  0  0
  9 52  1  0  0  0
 10 11  1  0  0  0
 10 12  1  0  0  0
 10 13  1  0  0  0
 11 53  1  0  0  0
 11 54  1  0  0  0
 11 55  1  0  0  0
 12 56  1  0  0  0
 12 57  1  0  0  0
 12 58  1  0  0  0
 13 14  1  0  0  0
 13 59  1  0  0  0
 13 83  1  0  0  0
 14 15  1  0  0  0
 14 60  1  0  0  0
 14 61  1  0  0  0
 15 40  1  0  0  0
 15 16  1  0  0  0
 15 17  1  0  0  0
 16 62  1  0  0  0
 17 41  1  0  0  0
 17 38  1  0  0  0
 17 18  1  0  0  0
 18 19  1  0  0  0
 18 63  1  0  0  0
 18 64  1  0  0  0
 19 39  1  0  0  0
 19 20  2  0  0  0
 20 21  1  0  0  0
 20 65  1  0  0  0
 21 22  2  0  0  0
 21 66  1  0  0  0
 22 23  1  0  0  0
 22 67  1  0  0  0
 23 24  1  0  0  0
 23 39  2  0  0  0
 24 25  1  0  0  0
 24 68  1  0  0  0
 24 69  1  0  0  0
 25 26  1  0  0  0
 25 70  1  0  0  0
 25 71  1  0  0  0
 26 27  1  0  0  0
 26 72  1  0  0  0
 26 73  1  0  0  0
 27 28  1  0  0  0
 27 74  1  0  0  0
 27 75  1  0  0  0
 28 29  1  0  0  0
 29 35  1  0  0  0
 29 30  2  0  0  0
 30 31  1  0  0  0
 30 76  1  0  0  0
 31 32  2  0  0  0
 31 36  1  0  0  0
 32 33  1  0  0  0
 32 77  1  0  0  0
 33 34  1  0  0  0
 33 35  2  0  0  0
 34 78  1  0  0  0
 34 79  1  0  0  0
 34 80  1  0  0  0
 36 37  2  0  0  0
 36 38  1  0  0  0
 38 81  1  0  0  0
 39 82  1  0  0  0
M  CHG  1  13   1
M  END
> <s_m_source_file>
BACE_106.smi

> <i_m_source_file_index>
1

> <i_lp_mmshare_version>
42013

> <i_f3d_flags>
0

> <s_epik_input>
W0NIM11bQ0hdKFtDSDNdKWMxW2NIXVtjSF1bY0hdYyhbY0hdMSlDKFtDSDNdKShbQ0gzXSlbTkhdW0NIMl1bQ0BASF0oW09IXSlbQ0BIXShbQ0gyXTIpW05IXUMoPU8pYyhbY0hdYyhuMylbQ0gzXSlbY0hdYzNPW0NIMl1bQ0gyXVtDSDJdW0NIMl1jKFtjSF00KVtjSF1bY0hdW2NIXWMyNA==

> <s_epik_cmdline>
J2VwaWtfcHl0aG9uJywgJy1waCcsICc3LjAnLCAnLXRuJywgJzgnLCAnLW1hJywgJzIwMCcsICctaW1hZScsICc8aW5maWxlLm1hZT4nLCAnLW9tYWUnLCAnPG91dGZpbGUubWFlPic=

> <r_lp_tautomer_probability>
1

> <r_epik_Ionization_Penalty>
0.0200681

> <r_epik_Ionization_Penalty_Charging>
0.0200546

> <r_epik_Ionization_Penalty_Neutral>
1.35079e-05

> <r_epik_State_Penalty>
0.0160525

> <r_epik_Charging_Adjusted_Penalty>
0.0361071

> <i_epik_Tot_Q>
1

> <i_epik_Tot_abs_Q>
1

> <s_lp_Force_Field>
OPLS_2005

> <r_lp_Energy>
32.9889

> <b_lp_Chiralities_Consistent>
1

> <s_lp_Variant>
BACE_106.smi:1-1

$$$$
BACE_106.smi:1
                    3D
 Structure written by MMmdl.
 82 85  0  0  1  0            999 V2000
   -0.3448    3.7624   -3.8521 C   0  0  0  0  0  0
   -0.4465    4.3764   -2.4469 C   0  0  0  0  0  0
    0.9139    4.8955   -1.9545 C   0  0  0  0  0  0
   -1.0671    3.4041   -1.4519 C   0  0  0  0  0  0
   -2.2929    3.7149   -0.8296 C   0  0  0  0  0  0
   -2.8642    2.8168    0.0895 C   0  0  0  0  0  0
   -2.2112    1.6089    0.4000 C   0  0  0  0  0  0
   -0.9715    1.2822   -0.2008 C   0  0  0  0  0  0
   -0.4217    2.1880   -1.1402 C   0  0  0  0  0  0
   -0.2371   -0.0344    0.1176 C   0  0  0  0  0  0
   -0.6863   -0.6727    1.4550 C   0  0  0  0  0  0
   -0.5493   -1.0353   -1.0097 C   0  0  0  0  0  0
    1.2231    0.1621    0.1329 N   0  0  0  0  0  0
    1.7781    0.9908    1.2075 C   0  0  0  0  0  0
    3.2931    1.1918    1.0289 C   0  0  1  0  0  0
    3.4895    2.1492    0.0046 O   0  0  0  0  0  0
    3.9724    1.6804    2.3344 C   0  0  2  0  0  0
    3.5097    3.0852    2.8090 C   0  0  0  0  0  0
    4.3245    3.6599    3.9600 C   0  0  0  0  0  0
    3.9428    3.4195    5.2961 C   0  0  0  0  0  0
    4.7116    3.9413    6.3559 C   0  0  0  0  0  0
    5.8710    4.6957    6.0871 C   0  0  0  0  0  0
    6.2597    4.9384    4.7540 C   0  0  0  0  0  0
    7.5421    5.6890    4.4389 C   0  0  0  0  0  0
    8.6841    4.7115    4.1160 C   0  0  0  0  0  0
    9.7777    5.2916    3.2004 C   0  0  0  0  0  0
   10.7796    4.2442    2.6687 C   0  0  0  0  0  0
   10.1534    3.3824    1.7132 O   0  0  0  0  0  0
    9.6071    2.2099    2.1840 C   0  0  0  0  0  0
    8.2677    1.9057    1.8698 C   0  0  0  0  0  0
    7.6612    0.7896    2.4890 C   0  0  0  0  0  0
    8.4637   -0.0384    3.3033 C   0  0  0  0  0  0
    9.8113    0.3215    3.5132 C   0  0  0  0  0  0
   10.7098   -0.5181    4.3968 C   0  0  0  0  0  0
   10.3716    1.4305    2.9839 N   0  0  0  0  0  0
    6.1942    0.5133    2.3315 C   0  0  0  0  0  0
    5.7456   -0.6311    2.3991 O   0  0  0  0  0  0
    5.4302    1.6134    2.2312 N   0  0  0  0  0  0
    5.4754    4.4322    3.6960 C   0  0  0  0  0  0
    3.7422    0.2481    0.7158 H   0  0  0  0  0  0
    3.7014    0.9832    3.1297 H   0  0  0  0  0  0
   -1.3238    3.4437   -4.2113 H   0  0  0  0  0  0
    0.3138    2.8936   -3.8663 H   0  0  0  0  0  0
    0.0481    4.4852   -4.5677 H   0  0  0  0  0  0
   -1.1092    5.2396   -2.5229 H   0  0  0  0  0  0
    0.8200    5.3731   -0.9787 H   0  0  0  0  0  0
    1.3235    5.6343   -2.6438 H   0  0  0  0  0  0
    1.6439    4.0908   -1.8615 H   0  0  0  0  0  0
   -2.8025    4.6403   -1.0553 H   0  0  0  0  0  0
   -3.8070    3.0548    0.5597 H   0  0  0  0  0  0
   -2.6850    0.9465    1.1071 H   0  0  0  0  0  0
    0.5131    1.9536   -1.6277 H   0  0  0  0  0  0
   -1.7187   -1.0209    1.4111 H   0  0  0  0  0  0
   -0.6129    0.0259    2.2892 H   0  0  0  0  0  0
   -0.0764   -1.5431    1.7003 H   0  0  0  0  0  0
   -1.6203   -1.2279   -1.0836 H   0  0  0  0  0  0
   -0.0551   -1.9931   -0.8422 H   0  0  0  0  0  0
   -0.2179   -0.6621   -1.9798 H   0  0  0  0  0  0
    1.7086   -0.7263    0.0623 H   0  0  0  0  0  0
    1.2707    1.9547    1.2594 H   0  0  0  0  0  0
    1.6080    0.4991    2.1650 H   0  0  0  0  0  0
    4.4168    2.2273   -0.1580 H   0  0  0  0  0  0
    3.5620    3.8004    1.9877 H   0  0  0  0  0  0
    2.4603    3.0508    3.1035 H   0  0  0  0  0  0
    3.0624    2.8321    5.5120 H   0  0  0  0  0  0
    4.4176    3.7527    7.3779 H   0  0  0  0  0  0
    6.4663    5.0742    6.9051 H   0  0  0  0  0  0
    7.3464    6.3383    3.5845 H   0  0  0  0  0  0
    7.8192    6.3427    5.2668 H   0  0  0  0  0  0
    9.1141    4.3089    5.0337 H   0  0  0  0  0  0
    8.2344    3.8659    3.6082 H   0  0  0  0  0  0
    9.3166    5.7924    2.3483 H   0  0  0  0  0  0
   10.3204    6.0625    3.7482 H   0  0  0  0  0  0
   11.5828    4.7634    2.1456 H   0  0  0  0  0  0
   11.2594    3.7184    3.4946 H   0  0  0  0  0  0
    7.7028    2.5745    1.2368 H   0  0  0  0  0  0
    8.0487   -0.9120    3.7854 H   0  0  0  0  0  0
   10.2603   -1.4892    4.6065 H   0  0  0  0  0  0
   10.8861   -0.0106    5.3456 H   0  0  0  0  0  0
   11.6725   -0.6877    3.9136 H   0  0  0  0  0  0
    5.9110    2.5007    2.1999 H   0  0  0  0  0  0
    5.7788    4.6095    2.6743 H   0  0  0  0  0  0
  1  2  1  0  0  0
  1 42  1  0  0  0
  1 43  1  0  0  0
  1 44  1  0  0  0
  2  3  1  0  0  0
  2  4  1  0  0  0
  2 45  1  0  0  0
  3 46  1  0  0  0
  3 47  1  0  0  0
  3 48  1  0  0  0
  4  9  1  0  0  0
  4  5  2  0  0  0
  5  6  1  0  0  0
  5 49  1  0  0  0
  6  7  2  0  0  0
  6 50  1  0  0  0
  7  8  1  0  0  0
  7 51  1  0  0  0
  8  9  2  0  0  0
  8 10  1  0  0  0
  9 52  1  0  0  0
 10 11  1  0  0  0
 10 12  1  0  0  0
 10 13  1  0  0  0
 11 53  1  0  0  0
 11 54  1  0  0  0
 11 55  1  0  0  0
 12 56  1  0  0  0
 12 57  1  0  0  0
 12 58  1  0  0  0
 13 14  1  0  0  0
 13 59  1  0  0  0
 14 15  1  0  0  0
 14 60  1  0  0  0
 14 61  1  0  0  0
 15 40  1  0  0  0
 15 16  1  0  0  0
 15 17  1  0  0  0
 16 62  1  0  0  0
 17 41  1  0  0  0
 17 38  1  0  0  0
 17 18  1  0  0  0
 18 19  1  0  0  0
 18 63  1  0  0  0
 18 64  1  0  0  0
 19 39  1  0  0  0
 19 20  2  0  0  0
 20 21  1  0  0  0
 20 65  1  0  0  0
 21 22  2  0  0  0
 21 66  1  0  0  0
 22 23  1  0  0  0
 22 67  1  0  0  0
 23 24  1  0  0  0
 23 39  2  0  0  0
 24 25  1  0  0  0
 24 68  1  0  0  0
 24 69  1  0  0  0
 25 26  1  0  0  0
 25 70  1  0  0  0
 25 71  1  0  0  0
 26 27  1  0  0  0
 26 72  1  0  0  0
 26 73  1  0  0  0
 27 28  1  0  0  0
 27 74  1  0  0  0
 27 75  1  0  0  0
 28 29  1  0  0  0
 29 35  1  0  0  0
 29 30  2  0  0  0
 30 31  1  0  0  0
 30 76  1  0  0  0
 31 32  2  0  0  0
 31 36  1  0  0  0
 32 33  1  0  0  0
 32 77  1  0  0  0
 33 34  1  0  0  0
 33 35  2  0  0  0
 34 78  1  0  0  0
 34 79  1  0  0  0
 34 80  1  0  0  0
 36 37  2  0  0  0
 36 38  1  0  0  0
 38 81  1  0  0  0
 39 82  1  0  0  0
M  END
> <s_m_source_file>
BACE_106.smi

> <i_m_source_file_index>
1

> <i_lp_mmshare_version>
42013

> <i_f3d_flags>
0

> <s_epik_input>
W0NIM11bQ0hdKFtDSDNdKWMxW2NIXVtjSF1bY0hdYyhbY0hdMSlDKFtDSDNdKShbQ0gzXSlbTkhdW0NIMl1bQ0BASF0oW09IXSlbQ0BIXShbQ0gyXTIpW05IXUMoPU8pYyhbY0hdYyhuMylbQ0gzXSlbY0hdYzNPW0NIMl1bQ0gyXVtDSDJdW0NIMl1jKFtjSF00KVtjSF1bY0hdW2NIXWMyNA==

> <s_epik_cmdline>
J2VwaWtfcHl0aG9uJywgJy1waCcsICc3LjAnLCAnLXRuJywgJzgnLCAnLW1hJywgJzIwMCcsICctaW1hZScsICc8aW5maWxlLm1hZT4nLCAnLW9tYWUnLCAnPG91dGZpbGUubWFlPic=

> <r_lp_tautomer_probability>
1

> <r_epik_Ionization_Penalty>
2.01609

> <r_epik_Ionization_Penalty_Charging>
0

> <r_epik_Ionization_Penalty_Neutral>
2.01609

> <r_epik_State_Penalty>
2.14597

> <r_epik_Charging_Adjusted_Penalty>
2.14597

> <i_epik_Tot_Q>
0

> <i_epik_Tot_abs_Q>
0

> <s_lp_Force_Field>
OPLS_2005

> <r_lp_Energy>
39.8527

> <b_lp_Chiralities_Consistent>
1

> <s_lp_Variant>
BACE_106.smi:1-2

$$$$
