BACE_124.smi:1
                    3D
 Structure written by MMmdl.
 92 95  0  0  1  0            999 V2000
   -6.4735   -3.6390   -2.9408 C   0  0  0  0  0  0
   -5.8329   -2.4336   -2.5609 O   0  0  0  0  0  0
   -6.4706   -1.8006   -1.4629 C   0  0  0  0  0  0
   -5.7615   -0.5246   -1.0487 C   0  0  0  0  0  0
   -6.5074    0.5897   -0.6154 C   0  0  0  0  0  0
   -5.8626    1.7805   -0.2241 C   0  0  0  0  0  0
   -4.4474    1.8366   -0.2361 C   0  0  0  0  0  0
   -3.6891    0.7167   -0.6479 C   0  0  0  0  0  0
   -4.3542   -0.4557   -1.0649 C   0  0  0  0  0  0
   -2.1912    0.7683   -0.6887 C   0  0  0  0  0  0
   -1.5739    0.2803   -1.6352 O   0  0  0  0  0  0
   -1.5960    1.3058    0.3900 N   0  0  0  0  0  0
   -0.1482    1.3962    0.6050 C   0  0  1  0  0  0
    0.1966    2.4473    1.6872 C   0  0  0  0  0  0
   -0.4477    3.8017    1.4501 C   0  0  0  0  0  0
   -1.5436    4.2136    2.2355 C   0  0  0  0  0  0
   -2.1648    5.4585    2.0138 C   0  0  0  0  0  0
   -1.6531    6.3108    1.0045 C   0  0  0  0  0  0
   -0.5530    5.9068    0.2237 C   0  0  0  0  0  0
    0.0477    4.6534    0.4427 C   0  0  0  0  0  0
   -3.2469    5.7644    2.8102 O   0  0  0  0  0  0
   -4.2152    6.6955    2.3338 C   0  0  0  0  0  0
   -4.9547    6.1725    1.0869 C   0  0  0  0  0  0
   -5.5870    4.7879    1.2960 C   0  0  0  0  0  0
   -6.1776    4.2252   -0.0038 C   0  0  0  0  0  0
   -6.6683    2.8642    0.1585 N   0  0  0  0  0  0
    0.4757   -0.0017    0.8668 C   0  0  2  0  0  0
    0.0873   -0.4812    2.1400 O   0  0  0  0  0  0
    2.0135    0.0117    0.8075 C   0  0  0  0  0  0
    2.5477   -1.3673    0.6920 N   0  3  0  0  0  0
    3.9722   -1.5236    0.2884 C   0  0  0  0  0  0
    4.8626   -0.6826    1.2357 C   0  0  0  0  0  0
    4.3277   -3.0124    0.4588 C   0  0  0  0  0  0
    4.1943   -1.1302   -1.1852 C   0  0  0  0  0  0
    3.1247   -0.9826   -2.1045 C   0  0  0  0  0  0
    3.3985   -0.6510   -3.4541 C   0  0  0  0  0  0
    4.7554   -0.5209   -3.8261 C   0  0  0  0  0  0
    5.7543   -0.7164   -2.8558 C   0  0  0  0  0  0
    5.4864   -1.0182   -1.5701 N   0  0  0  0  0  0
    2.2888   -0.4432   -4.5011 C   0  0  0  0  0  0
    2.4396    0.9468   -5.1547 C   0  0  0  0  0  0
    0.8695   -0.5155   -3.8943 C   0  0  0  0  0  0
    2.3998   -1.5323   -5.5861 C   0  0  0  0  0  0
    0.2685    1.7669   -0.3338 H   0  0  0  0  0  0
    0.1151   -0.7070    0.1175 H   0  0  0  0  0  0
   -5.9469   -4.0835   -3.7851 H   0  0  0  0  0  0
   -7.5054   -3.4589   -3.2450 H   0  0  0  0  0  0
   -6.4702   -4.3617   -2.1240 H   0  0  0  0  0  0
   -7.5060   -1.5744   -1.7237 H   0  0  0  0  0  0
   -6.4902   -2.4741   -0.6047 H   0  0  0  0  0  0
   -7.5866    0.5349   -0.5988 H   0  0  0  0  0  0
   -3.9332    2.7383    0.0623 H   0  0  0  0  0  0
   -3.7826   -1.3139   -1.3889 H   0  0  0  0  0  0
   -2.1885    1.6703    1.1223 H   0  0  0  0  0  0
   -0.1049    2.0892    2.6722 H   0  0  0  0  0  0
    1.2758    2.5937    1.7390 H   0  0  0  0  0  0
   -1.9289    3.5620    3.0062 H   0  0  0  0  0  0
   -2.0900    7.2780    0.8111 H   0  0  0  0  0  0
   -0.1708    6.5601   -0.5466 H   0  0  0  0  0  0
    0.8884    4.3481   -0.1629 H   0  0  0  0  0  0
   -4.9379    6.8463    3.1360 H   0  0  0  0  0  0
   -3.7703    7.6741    2.1535 H   0  0  0  0  0  0
   -5.7289    6.8863    0.8038 H   0  0  0  0  0  0
   -4.2698    6.1295    0.2404 H   0  0  0  0  0  0
   -4.8343    4.0981    1.6770 H   0  0  0  0  0  0
   -6.3609    4.8464    2.0622 H   0  0  0  0  0  0
   -7.0117    4.8497   -0.3246 H   0  0  0  0  0  0
   -5.4436    4.2658   -0.8095 H   0  0  0  0  0  0
   -7.6683    2.7362    0.0948 H   0  0  0  0  0  0
   -0.8570   -0.5219    2.1698 H   0  0  0  0  0  0
    2.3332    0.6004   -0.0520 H   0  0  0  0  0  0
    2.4275    0.5000    1.6904 H   0  0  0  0  0  0
    2.4186   -1.8186    1.5862 H   0  0  0  0  0  0
    5.9226   -0.8831    1.0758 H   0  0  0  0  0  0
    4.6522   -0.9081    2.2820 H   0  0  0  0  0  0
    4.7173    0.3881    1.0898 H   0  0  0  0  0  0
    5.3709   -3.2075    0.2070 H   0  0  0  0  0  0
    3.7131   -3.6429   -0.1853 H   0  0  0  0  0  0
    4.1748   -3.3440    1.4867 H   0  0  0  0  0  0
    2.1087   -1.1235   -1.7754 H   0  0  0  0  0  0
    5.0381   -0.2823   -4.8404 H   0  0  0  0  0  0
    6.7978   -0.6287   -3.1200 H   0  0  0  0  0  0
    1.6489    1.1296   -5.8832 H   0  0  0  0  0  0
    3.3868    1.0563   -5.6828 H   0  0  0  0  0  0
    2.3860    1.7405   -4.4086 H   0  0  0  0  0  0
    0.7284    0.2392   -3.1196 H   0  0  0  0  0  0
    0.6619   -1.4931   -3.4580 H   0  0  0  0  0  0
    0.1051   -0.3415   -4.6523 H   0  0  0  0  0  0
    1.6214   -1.4207   -6.3419 H   0  0  0  0  0  0
    2.2973   -2.5291   -5.1556 H   0  0  0  0  0  0
    3.3589   -1.4952   -6.1036 H   0  0  0  0  0  0
    1.9901   -1.8598    0.0091 H   0  0  0  0  0  0
  1  2  1  0  0  0
  1 46  1  0  0  0
  1 47  1  0  0  0
  1 48  1  0  0  0
  2  3  1  0  0  0
  3  4  1  0  0  0
  3 49  1  0  0  0
  3 50  1  0  0  0
  4  9  1  0  0  0
  4  5  2  0  0  0
  5  6  1  0  0  0
  5 51  1  0  0  0
  6 26  1  0  0  0
  6  7  2  0  0  0
  7  8  1  0  0  0
  7 52  1  0  0  0
  8  9  2  0  0  0
  8 10  1  0  0  0
  9 53  1  0  0  0
 10 11  2  0  0  0
 10 12  1  0  0  0
 12 13  1  0  0  0
 12 54  1  0  0  0
 13 44  1  0  0  0
 13 14  1  0  0  0
 13 27  1  0  0  0
 14 15  1  0  0  0
 14 55  1  0  0  0
 14 56  1  0  0  0
 15 20  1  0  0  0
 15 16  2  0  0  0
 16 17  1  0  0  0
 16 57  1  0  0  0
 17 18  2  0  0  0
 17 21  1  0  0  0
 18 19  1  0  0  0
 18 58  1  0  0  0
 19 20  2  0  0  0
 19 59  1  0  0  0
 20 60  1  0  0  0
 21 22  1  0  0  0
 22 23  1  0  0  0
 22 61  1  0  0  0
 22 62  1  0  0  0
 23 24  1  0  0  0
 23 63  1  0  0  0
 23 64  1  0  0  0
 24 25  1  0  0  0
 24 65  1  0  0  0
 24 66  1  0  0  0
 25 26  1  0  0  0
 25 67  1  0  0  0
 25 68  1  0  0  0
 26 69  1  0  0  0
 27 45  1  0  0  0
 27 28  1  0  0  0
 27 29  1  0  0  0
 28 70  1  0  0  0
 29 30  1  0  0  0
 29 71  1  0  0  0
 29 72  1  0  0  0
 30 31  1  0  0  0
 30 73  1  0  0  0
 30 92  1  0  0  0
 31 32  1  0  0  0
 31 33  1  0  0  0
 31 34  1  0  0  0
 32 74  1  0  0  0
 32 75  1  0  0  0
 32 76  1  0  0  0
 33 77  1  0  0  0
 33 78  1  0  0  0
 33 79  1  0  0  0
 34 39  1  0  0  0
 34 35  2  0  0  0
 35 36  1  0  0  0
 35 80  1  0  0  0
 36 37  2  0  0  0
 36 40  1  0  0  0
 37 38  1  0  0  0
 37 81  1  0  0  0
 38 39  2  0  0  0
 38 82  1  0  0  0
 40 41  1  0  0  0
 40 42  1  0  0  0
 40 43  1  0  0  0
 41 83  1  0  0  0
 41 84  1  0  0  0
 41 85  1  0  0  0
 42 86  1  0  0  0
 42 87  1  0  0  0
 42 88  1  0  0  0
 43 89  1  0  0  0
 43 90  1  0  0  0
 43 91  1  0  0  0
M  CHG  1  30   1
M  END
> <s_m_source_file>
BACE_124.smi

> <i_m_source_file_index>
1

> <i_lp_mmshare_version>
42013

> <i_f3d_flags>
0

> <s_epik_input>
bjFbY0hdW2NIXWMoQyhbQ0gzXSkoW0NIM10pW0NIM10pW2NIXWMxQyhbQ0gzXSkoW0NIM10pW05IXVtDSDJdW0NAQEhdKFtPSF0pW0NAQEhdKFtOSF1DKD1PKWMoW2NIXTIpW2NIXWMoW2NIXWMyMylbQ0gyXU9bQ0gzXSlbQ0gyXWM0W2NIXWMoW2NIXVtjSF1bY0hdNClPW0NIMl1bQ0gyXVtDSDJdW0NIMl1bTkhdMw==

> <s_epik_cmdline>
J2VwaWtfcHl0aG9uJywgJy1waCcsICc3LjAnLCAnLXRuJywgJzgnLCAnLW1hJywgJzIwMCcsICctaW1hZScsICc8aW5maWxlLm1hZT4nLCAnLW9tYWUnLCAnPG91dGZpbGUubWFlPic=

> <r_lp_tautomer_probability>
1

> <r_epik_Ionization_Penalty>
0.0394119

> <r_epik_Ionization_Penalty_Charging>
0.0378912

> <r_epik_Ionization_Penalty_Neutral>
0.00152069

> <r_epik_State_Penalty>
0.031743

> <r_epik_Charging_Adjusted_Penalty>
0.0696342

> <i_epik_Tot_Q>
1

> <i_epik_Tot_abs_Q>
1

> <s_lp_Force_Field>
OPLS_2005

> <r_lp_Energy>
32.4916

> <b_lp_Chiralities_Consistent>
1

> <s_lp_Variant>
BACE_124.smi:1-1

$$$$
BACE_124.smi:1
                    3D
 Structure written by MMmdl.
 91 94  0  0  1  0            999 V2000
    3.3919    7.4592   -3.4839 C   0  0  0  0  0  0
    4.1530    6.3168   -3.1236 O   0  0  0  0  0  0
    4.0246    5.2377   -4.0387 C   0  0  0  0  0  0
    2.6649    4.5633   -3.9837 C   0  0  0  0  0  0
    1.9471    4.3133   -5.1701 C   0  0  0  0  0  0
    0.6925    3.6736   -5.1217 C   0  0  0  0  0  0
    0.1612    3.2699   -3.8775 C   0  0  0  0  0  0
    0.8837    3.4976   -2.6837 C   0  0  0  0  0  0
    2.1299    4.1572   -2.7451 C   0  0  0  0  0  0
    0.3409    3.0615   -1.3550 C   0  0  0  0  0  0
    0.5155    3.7453   -0.3466 O   0  0  0  0  0  0
   -0.2507    1.8556   -1.3480 N   0  0  0  0  0  0
   -0.7658    1.1460   -0.1718 C   0  0  1  0  0  0
   -2.2167    0.6507   -0.4224 C   0  0  0  0  0  0
   -2.5409    0.3066   -1.8702 C   0  0  0  0  0  0
   -3.2843    1.2091   -2.6586 C   0  0  0  0  0  0
   -3.5614    0.9337   -4.0122 C   0  0  0  0  0  0
   -3.0931   -0.2797   -4.5738 C   0  0  0  0  0  0
   -2.3666   -1.1929   -3.7859 C   0  0  0  0  0  0
   -2.0916   -0.9031   -2.4368 C   0  0  0  0  0  0
   -4.2894    1.8807   -4.6995 O   0  0  0  0  0  0
   -4.2292    1.9094   -6.1222 C   0  0  0  0  0  0
   -2.8517    2.3859   -6.6177 C   0  0  0  0  0  0
   -2.4639    3.7618   -6.0477 C   0  0  0  0  0  0
   -1.1243    4.3003   -6.5763 C   0  0  0  0  0  0
    0.0119    3.4236   -6.3181 N   0  0  0  0  0  0
    0.1873   -0.0036    0.2592 C   0  0  2  0  0  0
   -0.2129   -0.4523    1.5405 O   0  0  0  0  0  0
    1.6733    0.3957    0.3745 C   0  0  0  0  0  0
    2.5312   -0.7926    0.4063 N   0  0  0  0  0  0
    3.9711   -0.6130    0.1395 C   0  0  0  0  0  0
    4.5158    0.5684    0.9789 C   0  0  0  0  0  0
    4.6617   -1.9129    0.5955 C   0  0  0  0  0  0
    4.2659   -0.4005   -1.3599 C   0  0  0  0  0  0
    3.2697   -0.5247   -2.3623 C   0  0  0  0  0  0
    3.6109   -0.3386   -3.7238 C   0  0  0  0  0  0
    4.9666   -0.0664   -4.0177 C   0  0  0  0  0  0
    5.8916    0.0267   -2.9622 C   0  0  0  0  0  0
    5.5570   -0.1357   -1.6674 N   0  0  0  0  0  0
    2.5717   -0.4546   -4.8555 C   0  0  0  0  0  0
    2.7575    0.6839   -5.8814 C   0  0  0  0  0  0
    1.1169   -0.3724   -4.3381 C   0  0  0  0  0  0
    2.7575   -1.8071   -5.5669 C   0  0  0  0  0  0
   -0.8109    1.8413    0.6688 H   0  0  0  0  0  0
    0.0968   -0.8265   -0.4497 H   0  0  0  0  0  0
    3.5621    8.2542   -2.7582 H   0  0  0  0  0  0
    2.3230    7.2433   -3.4956 H   0  0  0  0  0  0
    3.6840    7.8330   -4.4660 H   0  0  0  0  0  0
    4.2524    5.5731   -5.0518 H   0  0  0  0  0  0
    4.7770    4.4905   -3.7852 H   0  0  0  0  0  0
    2.3610    4.6124   -6.1222 H   0  0  0  0  0  0
   -0.7894    2.7586   -3.8418 H   0  0  0  0  0  0
    2.6917    4.3404   -1.8401 H   0  0  0  0  0  0
   -0.3247    1.3703   -2.2304 H   0  0  0  0  0  0
   -2.4613   -0.2039    0.2088 H   0  0  0  0  0  0
   -2.9039    1.4382   -0.1103 H   0  0  0  0  0  0
   -3.6322    2.1373   -2.2292 H   0  0  0  0  0  0
   -3.2846   -0.5375   -5.6035 H   0  0  0  0  0  0
   -2.0160   -2.1178   -4.2194 H   0  0  0  0  0  0
   -1.5308   -1.6104   -1.8446 H   0  0  0  0  0  0
   -4.5074    0.9515   -6.5607 H   0  0  0  0  0  0
   -4.9899    2.6130   -6.4612 H   0  0  0  0  0  0
   -2.0904    1.6504   -6.3584 H   0  0  0  0  0  0
   -2.8643    2.4353   -7.7069 H   0  0  0  0  0  0
   -3.2445    4.4800   -6.3006 H   0  0  0  0  0  0
   -2.4459    3.7249   -4.9595 H   0  0  0  0  0  0
   -1.1937    4.4446   -7.6546 H   0  0  0  0  0  0
   -0.9317    5.2865   -6.1509 H   0  0  0  0  0  0
    0.6291    3.3764   -7.1162 H   0  0  0  0  0  0
   -1.1057   -0.7565    1.4859 H   0  0  0  0  0  0
    1.9634    1.0025   -0.4806 H   0  0  0  0  0  0
    1.8317    1.0184    1.2559 H   0  0  0  0  0  0
    2.3730   -1.3512    1.2389 H   0  0  0  0  0  0
    5.6030    0.6322    0.9234 H   0  0  0  0  0  0
    4.2577    0.4594    2.0328 H   0  0  0  0  0  0
    4.1246    1.5272    0.6367 H   0  0  0  0  0  0
    5.7439   -1.8613    0.4717 H   0  0  0  0  0  0
    4.3080   -2.7716    0.0234 H   0  0  0  0  0  0
    4.4680   -2.1174    1.6493 H   0  0  0  0  0  0
    2.2574   -0.7679   -2.0870 H   0  0  0  0  0  0
    5.3110    0.0623   -5.0320 H   0  0  0  0  0  0
    6.9322    0.2316   -3.1653 H   0  0  0  0  0  0
    1.9705    0.6744   -6.6364 H   0  0  0  0  0  0
    3.7025    0.6130   -6.4184 H   0  0  0  0  0  0
    2.7309    1.6553   -5.3906 H   0  0  0  0  0  0
    0.9474    0.5394   -3.7662 H   0  0  0  0  0  0
    0.8586   -1.2203   -3.7035 H   0  0  0  0  0  0
    0.4018   -0.3740   -5.1617 H   0  0  0  0  0  0
    2.0392   -1.9322   -6.3779 H   0  0  0  0  0  0
    2.6211   -2.6388   -4.8748 H   0  0  0  0  0  0
    3.7555   -1.8989   -5.9969 H   0  0  0  0  0  0
  1  2  1  0  0  0
  1 46  1  0  0  0
  1 47  1  0  0  0
  1 48  1  0  0  0
  2  3  1  0  0  0
  3  4  1  0  0  0
  3 49  1  0  0  0
  3 50  1  0  0  0
  4  9  1  0  0  0
  4  5  2  0  0  0
  5  6  1  0  0  0
  5 51  1  0  0  0
  6 26  1  0  0  0
  6  7  2  0  0  0
  7  8  1  0  0  0
  7 52  1  0  0  0
  8  9  2  0  0  0
  8 10  1  0  0  0
  9 53  1  0  0  0
 10 11  2  0  0  0
 10 12  1  0  0  0
 12 13  1  0  0  0
 12 54  1  0  0  0
 13 44  1  0  0  0
 13 14  1  0  0  0
 13 27  1  0  0  0
 14 15  1  0  0  0
 14 55  1  0  0  0
 14 56  1  0  0  0
 15 20  1  0  0  0
 15 16  2  0  0  0
 16 17  1  0  0  0
 16 57  1  0  0  0
 17 18  2  0  0  0
 17 21  1  0  0  0
 18 19  1  0  0  0
 18 58  1  0  0  0
 19 20  2  0  0  0
 19 59  1  0  0  0
 20 60  1  0  0  0
 21 22  1  0  0  0
 22 23  1  0  0  0
 22 61  1  0  0  0
 22 62  1  0  0  0
 23 24  1  0  0  0
 23 63  1  0  0  0
 23 64  1  0  0  0
 24 25  1  0  0  0
 24 65  1  0  0  0
 24 66  1  0  0  0
 25 26  1  0  0  0
 25 67  1  0  0  0
 25 68  1  0  0  0
 26 69  1  0  0  0
 27 45  1  0  0  0
 27 28  1  0  0  0
 27 29  1  0  0  0
 28 70  1  0  0  0
 29 30  1  0  0  0
 29 71  1  0  0  0
 29 72  1  0  0  0
 30 31  1  0  0  0
 30 73  1  0  0  0
 31 32  1  0  0  0
 31 33  1  0  0  0
 31 34  1  0  0  0
 32 74  1  0  0  0
 32 75  1  0  0  0
 32 76  1  0  0  0
 33 77  1  0  0  0
 33 78  1  0  0  0
 33 79  1  0  0  0
 34 39  1  0  0  0
 34 35  2  0  0  0
 35 36  1  0  0  0
 35 80  1  0  0  0
 36 37  2  0  0  0
 36 40  1  0  0  0
 37 38  1  0  0  0
 37 81  1  0  0  0
 38 39  2  0  0  0
 38 82  1  0  0  0
 40 41  1  0  0  0
 40 42  1  0  0  0
 40 43  1  0  0  0
 41 83  1  0  0  0
 41 84  1  0  0  0
 41 85  1  0  0  0
 42 86  1  0  0  0
 42 87  1  0  0  0
 42 88  1  0  0  0
 43 89  1  0  0  0
 43 90  1  0  0  0
 43 91  1  0  0  0
M  END
> <s_m_source_file>
BACE_124.smi

> <i_m_source_file_index>
1

> <i_lp_mmshare_version>
42013

> <i_f3d_flags>
0

> <s_epik_input>
bjFbY0hdW2NIXWMoQyhbQ0gzXSkoW0NIM10pW0NIM10pW2NIXWMxQyhbQ0gzXSkoW0NIM10pW05IXVtDSDJdW0NAQEhdKFtPSF0pW0NAQEhdKFtOSF1DKD1PKWMoW2NIXTIpW2NIXWMoW2NIXWMyMylbQ0gyXU9bQ0gzXSlbQ0gyXWM0W2NIXWMoW2NIXVtjSF1bY0hdNClPW0NIMl1bQ0gyXVtDSDJdW0NIMl1bTkhdMw==

> <s_epik_cmdline>
J2VwaWtfcHl0aG9uJywgJy1waCcsICc3LjAnLCAnLXRuJywgJzgnLCAnLW1hJywgJzIwMCcsICctaW1hZScsICc8aW5maWxlLm1hZT4nLCAnLW9tYWUnLCAnPG91dGZpbGUubWFlPic=

> <r_lp_tautomer_probability>
1

> <r_epik_Ionization_Penalty>
1.65749

> <r_epik_Ionization_Penalty_Charging>
0

> <r_epik_Ionization_Penalty_Neutral>
1.65749

> <r_epik_State_Penalty>
1.7498

> <r_epik_Charging_Adjusted_Penalty>
1.7498

> <i_epik_Tot_Q>
0

> <i_epik_Tot_abs_Q>
0

> <s_lp_Force_Field>
OPLS_2005

> <r_lp_Energy>
41.0353

> <b_lp_Chiralities_Consistent>
1

> <s_lp_Variant>
BACE_124.smi:1-2

$$$$
