BACE_42.smi:1
                    3D
 Structure written by MMmdl.
 83 85  0  0  1  0            999 V2000
    3.0844    2.2300   -2.5964 C   0  0  0  0  0  0
    1.8209    3.0838   -2.7964 C   0  0  0  0  0  0
    1.8482    4.3462   -1.9208 C   0  0  0  0  0  0
    0.5512    2.2719   -2.5701 C   0  0  0  0  0  0
   -0.3771    2.0990   -3.6193 C   0  0  0  0  0  0
   -1.5426    1.3342   -3.4181 C   0  0  0  0  0  0
   -1.7852    0.7305   -2.1694 C   0  0  0  0  0  0
   -0.8647    0.8973   -1.1148 C   0  0  0  0  0  0
   -1.1043    0.2236    0.2258 C   0  0  0  0  0  0
   -0.5886   -1.1635    0.2611 N   0  3  0  0  0  0
    0.8658   -1.2907    0.0249 C   0  0  0  0  0  0
    1.3779   -2.7215    0.2740 C   0  0  1  0  0  0
    0.7564   -3.5865   -0.6584 O   0  0  0  0  0  0
    2.9221   -2.7910    0.1333 C   0  0  2  0  0  0
    3.4202   -2.8579   -1.3373 C   0  0  0  0  0  0
    4.8773   -2.4109   -1.6121 C   0  0  2  0  0  0
    5.9262   -3.3947   -1.0633 C   0  0  0  0  0  0
    5.1361   -0.9596   -1.1555 C   0  0  0  0  0  0
    6.3565   -0.2934   -1.8173 C   0  0  0  0  0  0
    6.7026    1.0783   -1.2075 C   0  0  0  0  0  0
    7.7836    1.0371   -0.1096 C   0  0  0  0  0  0
    7.4140    0.1911    1.1190 C   0  0  0  0  0  0
    8.4505    0.2888    2.2483 C   0  0  0  0  0  0
    8.1907   -0.6829    3.4156 C   0  0  0  0  0  0
    6.9930   -0.3505    4.1890 N   0  0  0  0  0  0
    7.0504    0.8246    5.0547 C   0  0  0  0  0  0
    5.7233   -0.8759    3.8418 C   0  0  0  0  0  0
    5.5819   -2.0988    3.1362 C   0  0  0  0  0  0
    4.2920   -2.5711    2.8108 C   0  0  0  0  0  0
    3.1755   -1.8187    3.2299 C   0  0  0  0  0  0
    3.4034   -0.6198    3.9265 C   0  0  0  0  0  0
    4.6355   -0.1593    4.2207 N   0  0  0  0  0  0
    4.1272   -3.8785    2.0891 C   0  0  0  0  0  0
    4.6354   -4.8961    2.5540 O   0  0  0  0  0  0
    3.4471   -3.9063    0.9254 N   0  0  0  0  0  0
    0.2936    1.6781   -1.3156 C   0  0  0  0  0  0
    1.0764   -3.0318    1.2749 H   0  0  0  0  0  0
    3.3035   -1.8629    0.5508 H   0  0  0  0  0  0
    4.9819   -2.4273   -2.6979 H   0  0  0  0  0  0
    3.0766    1.3570   -3.2499 H   0  0  0  0  0  0
    3.1737    1.8762   -1.5691 H   0  0  0  0  0  0
    3.9843    2.8019   -2.8247 H   0  0  0  0  0  0
    1.8204    3.4147   -3.8359 H   0  0  0  0  0  0
    0.9723    4.9691   -2.1047 H   0  0  0  0  0  0
    2.7310    4.9499   -2.1331 H   0  0  0  0  0  0
    1.8654    4.1000   -0.8587 H   0  0  0  0  0  0
   -0.1991    2.5492   -4.5853 H   0  0  0  0  0  0
   -2.2486    1.2053   -4.2254 H   0  0  0  0  0  0
   -2.6763    0.1366   -2.0270 H   0  0  0  0  0  0
   -0.6396    0.8056    1.0228 H   0  0  0  0  0  0
   -2.1743    0.2051    0.4358 H   0  0  0  0  0  0
   -0.7958   -1.5510    1.1703 H   0  0  0  0  0  0
    1.1010   -0.9809   -0.9933 H   0  0  0  0  0  0
    1.3798   -0.5995    0.6946 H   0  0  0  0  0  0
    1.0652   -4.4669   -0.5047 H   0  0  0  0  0  0
    3.2728   -3.8656   -1.7287 H   0  0  0  0  0  0
    2.7812   -2.2235   -1.9519 H   0  0  0  0  0  0
    6.0250   -3.3190    0.0185 H   0  0  0  0  0  0
    6.9108   -3.2028   -1.4888 H   0  0  0  0  0  0
    5.6668   -4.4252   -1.3070 H   0  0  0  0  0  0
    4.2593   -0.3511   -1.3792 H   0  0  0  0  0  0
    5.2378   -0.9385   -0.0724 H   0  0  0  0  0  0
    7.2318   -0.9412   -1.7743 H   0  0  0  0  0  0
    6.1364   -0.1636   -2.8776 H   0  0  0  0  0  0
    7.0719    1.7231   -2.0058 H   0  0  0  0  0  0
    5.8012    1.5659   -0.8336 H   0  0  0  0  0  0
    8.7174    0.6674   -0.5351 H   0  0  0  0  0  0
    7.9849    2.0596    0.2123 H   0  0  0  0  0  0
    6.4388    0.5062    1.4906 H   0  0  0  0  0  0
    7.3207   -0.8544    0.8250 H   0  0  0  0  0  0
    9.4359    0.0673    1.8372 H   0  0  0  0  0  0
    8.5035    1.3141    2.6167 H   0  0  0  0  0  0
    8.1901   -1.7096    3.0586 H   0  0  0  0  0  0
    9.0393   -0.6329    4.0985 H   0  0  0  0  0  0
    6.5120    0.6461    5.9859 H   0  0  0  0  0  0
    6.6122    1.6905    4.5578 H   0  0  0  0  0  0
    8.0810    1.0710    5.3108 H   0  0  0  0  0  0
    6.4334   -2.6920    2.8431 H   0  0  0  0  0  0
    2.1673   -2.1516    3.0403 H   0  0  0  0  0  0
    2.5732   -0.0164    4.2625 H   0  0  0  0  0  0
    3.3584   -4.8152    0.4943 H   0  0  0  0  0  0
    0.9989    1.8040   -0.5073 H   0  0  0  0  0  0
   -1.0719   -1.7097   -0.4380 H   0  0  0  0  0  0
  1  2  1  0  0  0
  1 40  1  0  0  0
  1 41  1  0  0  0
  1 42  1  0  0  0
  2  3  1  0  0  0
  2  4  1  0  0  0
  2 43  1  0  0  0
  3 44  1  0  0  0
  3 45  1  0  0  0
  3 46  1  0  0  0
  4 36  1  0  0  0
  4  5  2  0  0  0
  5  6  1  0  0  0
  5 47  1  0  0  0
  6  7  2  0  0  0
  6 48  1  0  0  0
  7  8  1  0  0  0
  7 49  1  0  0  0
  8  9  1  0  0  0
  8 36  2  0  0  0
  9 10  1  0  0  0
  9 50  1  0  0  0
  9 51  1  0  0  0
 10 11  1  0  0  0
 10 52  1  0  0  0
 10 83  1  0  0  0
 11 12  1  0  0  0
 11 53  1  0  0  0
 11 54  1  0  0  0
 12 37  1  0  0  0
 12 13  1  0  0  0
 12 14  1  0  0  0
 13 55  1  0  0  0
 14 38  1  0  0  0
 14 35  1  0  0  0
 14 15  1  0  0  0
 15 16  1  0  0  0
 15 56  1  0  0  0
 15 57  1  0  0  0
 16 39  1  0  0  0
 16 17  1  0  0  0
 16 18  1  0  0  0
 17 58  1  0  0  0
 17 59  1  0  0  0
 17 60  1  0  0  0
 18 19  1  0  0  0
 18 61  1  0  0  0
 18 62  1  0  0  0
 19 20  1  0  0  0
 19 63  1  0  0  0
 19 64  1  0  0  0
 20 21  1  0  0  0
 20 65  1  0  0  0
 20 66  1  0  0  0
 21 22  1  0  0  0
 21 67  1  0  0  0
 21 68  1  0  0  0
 22 23  1  0  0  0
 22 69  1  0  0  0
 22 70  1  0  0  0
 23 24  1  0  0  0
 23 71  1  0  0  0
 23 72  1  0  0  0
 24 25  1  0  0  0
 24 73  1  0  0  0
 24 74  1  0  0  0
 25 26  1  0  0  0
 25 27  1  0  0  0
 26 75  1  0  0  0
 26 76  1  0  0  0
 26 77  1  0  0  0
 27 32  1  0  0  0
 27 28  2  0  0  0
 28 29  1  0  0  0
 28 78  1  0  0  0
 29 30  2  0  0  0
 29 33  1  0  0  0
 30 31  1  0  0  0
 30 79  1  0  0  0
 31 32  2  0  0  0
 31 80  1  0  0  0
 33 34  2  0  0  0
 33 35  1  0  0  0
 35 81  1  0  0  0
 36 82  1  0  0  0
M  CHG  1  10   1
M  END
> <s_m_source_file>
BACE_42.smi

> <i_m_source_file_index>
1

> <i_lp_mmshare_version>
42013

> <i_f3d_flags>
0

> <s_epik_input>
W0NIM11bQ0hdKFtDSDNdKWMxW2NIXVtjSF1bY0hdYyhbY0hdMSlbQ0gyXVtOSF1bQ0gyXVtDQEBIXShbT0hdKVtDQEBIXShbTkhdQyg9TyljKFtjSF1jMjMpW2NIXVtjSF1uMylbQ0gyXVtDQEhdKFtDSDNdKVtDSDJdW0NIMl1bQ0gyXVtDSDJdW0NIMl1bQ0gyXVtDSDJdTjJbQ0gzXQ==

> <s_epik_cmdline>
J2VwaWtfcHl0aG9uJywgJy1waCcsICc3LjAnLCAnLXRuJywgJzgnLCAnLW1hJywgJzIwMCcsICctaW1hZScsICc8aW5maWxlLm1hZT4nLCAnLW9tYWUnLCAnPG91dGZpbGUubWFlPic=

> <r_lp_tautomer_probability>
1

> <r_epik_Ionization_Penalty>
0.0242952

> <r_epik_Ionization_Penalty_Charging>
0.017325

> <r_epik_Ionization_Penalty_Neutral>
0.00697019

> <r_epik_State_Penalty>
0.0181439

> <r_epik_Charging_Adjusted_Penalty>
0.0354689

> <i_epik_Tot_Q>
1

> <i_epik_Tot_abs_Q>
1

> <s_lp_Force_Field>
OPLS_2005

> <r_lp_Energy>
34.5079

> <b_lp_Chiralities_Consistent>
1

> <s_lp_Variant>
BACE_42.smi:1-1

$$$$
BACE_42.smi:1
                    3D
 Structure written by MMmdl.
 82 84  0  0  1  0            999 V2000
   -3.6782    0.1398   -4.3912 C   0  0  0  0  0  0
   -4.0176    0.6271   -2.9737 C   0  0  0  0  0  0
   -5.2535    1.5396   -2.9671 C   0  0  0  0  0  0
   -2.8239    1.2975   -2.3060 C   0  0  0  0  0  0
   -2.2480    2.4625   -2.8588 C   0  0  0  0  0  0
   -1.1456    3.0757   -2.2333 C   0  0  0  0  0  0
   -0.6117    2.5301   -1.0505 C   0  0  0  0  0  0
   -1.1806    1.3686   -0.4894 C   0  0  0  0  0  0
   -0.6118    0.7801    0.7883 C   0  0  0  0  0  0
   -0.0188   -0.5403    0.5928 N   0  0  0  0  0  0
    1.2875   -0.5189   -0.0621 C   0  0  0  0  0  0
    1.8670   -1.9404   -0.2058 C   0  0  1  0  0  0
    1.3640   -2.4900   -1.4088 O   0  0  0  0  0  0
    3.4192   -1.9468   -0.2305 C   0  0  2  0  0  0
    4.0216   -1.4107   -1.5586 C   0  0  0  0  0  0
    5.5382   -1.0919   -1.5870 C   0  0  2  0  0  0
    6.4280   -2.3486   -1.6133 C   0  0  0  0  0  0
    5.9549   -0.0956   -0.4852 C   0  0  0  0  0  0
    7.3111    0.5898   -0.7422 C   0  0  0  0  0  0
    7.7133    1.5878    0.3602 C   0  0  0  0  0  0
    8.6489    1.0151    1.4416 C   0  0  0  0  0  0
    8.0545   -0.1542    2.2401 C   0  0  0  0  0  0
    8.9257   -0.5617    3.4383 C   0  0  0  0  0  0
    8.4336   -1.8247    4.1706 C   0  0  0  0  0  0
    7.1497   -1.6367    4.8482 N   0  0  0  0  0  0
    7.1402   -0.8405    6.0732 C   0  0  0  0  0  0
    5.9180   -1.8935    4.1937 C   0  0  0  0  0  0
    5.8365   -2.6839    3.0176 C   0  0  0  0  0  0
    4.5833   -2.9005    2.4049 C   0  0  0  0  0  0
    3.4377   -2.3415    3.0077 C   0  0  0  0  0  0
    3.6045   -1.5711    4.1709 C   0  0  0  0  0  0
    4.8038   -1.3515    4.7460 N   0  0  0  0  0  0
    4.4854   -3.7744    1.1861 C   0  0  0  0  0  0
    4.9657   -4.9055    1.2147 O   0  0  0  0  0  0
    3.9036   -3.2966    0.0683 N   0  0  0  0  0  0
   -2.2844    0.7562   -1.1192 C   0  0  0  0  0  0
    1.5145   -2.5592    0.6193 H   0  0  0  0  0  0
    3.7475   -1.2740    0.5590 H   0  0  0  0  0  0
    5.7011   -0.5923   -2.5431 H   0  0  0  0  0  0
   -2.8285   -0.5435   -4.3767 H   0  0  0  0  0  0
   -3.4287    0.9684   -5.0544 H   0  0  0  0  0  0
   -4.5207   -0.3928   -4.8333 H   0  0  0  0  0  0
   -4.2707   -0.2567   -2.3865 H   0  0  0  0  0  0
   -5.5161    1.8337   -1.9504 H   0  0  0  0  0  0
   -6.1177    1.0314   -3.3956 H   0  0  0  0  0  0
   -5.0857    2.4491   -3.5443 H   0  0  0  0  0  0
   -2.6499    2.8918   -3.7645 H   0  0  0  0  0  0
   -0.7100    3.9663   -2.6615 H   0  0  0  0  0  0
    0.2345    3.0050   -0.5765 H   0  0  0  0  0  0
    0.1113    1.4641    1.2345 H   0  0  0  0  0  0
   -1.4338    0.7023    1.5002 H   0  0  0  0  0  0
    0.0384   -1.0314    1.4790 H   0  0  0  0  0  0
    1.2318   -0.0240   -1.0326 H   0  0  0  0  0  0
    1.9637    0.0831    0.5457 H   0  0  0  0  0  0
    1.6614   -3.3840   -1.4772 H   0  0  0  0  0  0
    3.7957   -2.1032   -2.3705 H   0  0  0  0  0  0
    3.4981   -0.4903   -1.8189 H   0  0  0  0  0  0
    6.4953   -2.8209   -0.6345 H   0  0  0  0  0  0
    7.4447   -2.1055   -1.9207 H   0  0  0  0  0  0
    6.0488   -3.0874   -2.3197 H   0  0  0  0  0  0
    5.1928    0.6807   -0.4048 H   0  0  0  0  0  0
    5.9639   -0.6047    0.4771 H   0  0  0  0  0  0
    8.1038   -0.1463   -0.8768 H   0  0  0  0  0  0
    7.2430    1.1290   -1.6878 H   0  0  0  0  0  0
    8.2330    2.4228   -0.1110 H   0  0  0  0  0  0
    6.8253    2.0228    0.8207 H   0  0  0  0  0  0
    9.5878    0.7018    0.9836 H   0  0  0  0  0  0
    8.9051    1.8202    2.1312 H   0  0  0  0  0  0
    7.0602    0.1232    2.5909 H   0  0  0  0  0  0
    7.9319   -1.0161    1.5843 H   0  0  0  0  0  0
    9.9412   -0.7469    3.0866 H   0  0  0  0  0  0
    8.9982    0.2701    4.1398 H   0  0  0  0  0  0
    8.4343   -2.6817    3.5018 H   0  0  0  0  0  0
    9.1667   -2.0817    4.9359 H   0  0  0  0  0  0
    6.5130   -1.3077    6.8330 H   0  0  0  0  0  0
    6.7623    0.1634    5.8769 H   0  0  0  0  0  0
    8.1443   -0.7444    6.4869 H   0  0  0  0  0  0
    6.7060   -3.1346    2.5669 H   0  0  0  0  0  0
    2.4501   -2.5059    2.6076 H   0  0  0  0  0  0
    2.7501   -1.1266    4.6595 H   0  0  0  0  0  0
    3.8600   -3.9417   -0.7071 H   0  0  0  0  0  0
   -2.7169   -0.1336   -0.6850 H   0  0  0  0  0  0
  1  2  1  0  0  0
  1 40  1  0  0  0
  1 41  1  0  0  0
  1 42  1  0  0  0
  2  3  1  0  0  0
  2  4  1  0  0  0
  2 43  1  0  0  0
  3 44  1  0  0  0
  3 45  1  0  0  0
  3 46  1  0  0  0
  4 36  1  0  0  0
  4  5  2  0  0  0
  5  6  1  0  0  0
  5 47  1  0  0  0
  6  7  2  0  0  0
  6 48  1  0  0  0
  7  8  1  0  0  0
  7 49  1  0  0  0
  8  9  1  0  0  0
  8 36  2  0  0  0
  9 10  1  0  0  0
  9 50  1  0  0  0
  9 51  1  0  0  0
 10 11  1  0  0  0
 10 52  1  0  0  0
 11 12  1  0  0  0
 11 53  1  0  0  0
 11 54  1  0  0  0
 12 37  1  0  0  0
 12 13  1  0  0  0
 12 14  1  0  0  0
 13 55  1  0  0  0
 14 38  1  0  0  0
 14 35  1  0  0  0
 14 15  1  0  0  0
 15 16  1  0  0  0
 15 56  1  0  0  0
 15 57  1  0  0  0
 16 39  1  0  0  0
 16 17  1  0  0  0
 16 18  1  0  0  0
 17 58  1  0  0  0
 17 59  1  0  0  0
 17 60  1  0  0  0
 18 19  1  0  0  0
 18 61  1  0  0  0
 18 62  1  0  0  0
 19 20  1  0  0  0
 19 63  1  0  0  0
 19 64  1  0  0  0
 20 21  1  0  0  0
 20 65  1  0  0  0
 20 66  1  0  0  0
 21 22  1  0  0  0
 21 67  1  0  0  0
 21 68  1  0  0  0
 22 23  1  0  0  0
 22 69  1  0  0  0
 22 70  1  0  0  0
 23 24  1  0  0  0
 23 71  1  0  0  0
 23 72  1  0  0  0
 24 25  1  0  0  0
 24 73  1  0  0  0
 24 74  1  0  0  0
 25 26  1  0  0  0
 25 27  1  0  0  0
 26 75  1  0  0  0
 26 76  1  0  0  0
 26 77  1  0  0  0
 27 32  1  0  0  0
 27 28  2  0  0  0
 28 29  1  0  0  0
 28 78  1  0  0  0
 29 30  2  0  0  0
 29 33  1  0  0  0
 30 31  1  0  0  0
 30 79  1  0  0  0
 31 32  2  0  0  0
 31 80  1  0  0  0
 33 34  2  0  0  0
 33 35  1  0  0  0
 35 81  1  0  0  0
 36 82  1  0  0  0
M  END
> <s_m_source_file>
BACE_42.smi

> <i_m_source_file_index>
1

> <i_lp_mmshare_version>
42013

> <i_f3d_flags>
0

> <s_epik_input>
W0NIM11bQ0hdKFtDSDNdKWMxW2NIXVtjSF1bY0hdYyhbY0hdMSlbQ0gyXVtOSF1bQ0gyXVtDQEBIXShbT0hdKVtDQEBIXShbTkhdQyg9TyljKFtjSF1jMjMpW2NIXVtjSF1uMylbQ0gyXVtDQEhdKFtDSDNdKVtDSDJdW0NIMl1bQ0gyXVtDSDJdW0NIMl1bQ0gyXVtDSDJdTjJbQ0gzXQ==

> <s_epik_cmdline>
J2VwaWtfcHl0aG9uJywgJy1waCcsICc3LjAnLCAnLXRuJywgJzgnLCAnLW1hJywgJzIwMCcsICctaW1hZScsICc8aW5maWxlLm1hZT4nLCAnLW9tYWUnLCAnPG91dGZpbGUubWFlPic=

> <r_lp_tautomer_probability>
1

> <r_epik_Ionization_Penalty>
2.11256

> <r_epik_Ionization_Penalty_Charging>
0

> <r_epik_Ionization_Penalty_Neutral>
2.11256

> <r_epik_State_Penalty>
2.30283

> <r_epik_Charging_Adjusted_Penalty>
2.30283

> <i_epik_Tot_Q>
0

> <i_epik_Tot_abs_Q>
0

> <s_lp_Force_Field>
OPLS_2005

> <r_lp_Energy>
44.6028

> <b_lp_Chiralities_Consistent>
1

> <s_lp_Variant>
BACE_42.smi:1-2

$$$$
