BACE_134.smi:1
                    3D
 Structure written by MMmdl.
 81 84  0  0  1  0            999 V2000
   -3.2929   10.7375    2.8390 C   0  0  0  0  0  0
   -3.5843    9.6003    2.0444 O   0  0  0  0  0  0
   -2.9293    8.4425    2.2636 C   0  0  0  0  0  0
   -2.0658    8.3021    3.1324 O   0  0  0  0  0  0
   -3.3596    7.3458    1.3483 C   0  0  0  0  0  0
   -4.3268    7.5525    0.3360 C   0  0  0  0  0  0
   -4.7284    6.5060   -0.5178 C   0  0  0  0  0  0
   -4.1427    5.2281   -0.3535 C   0  0  0  0  0  0
   -3.1691    5.0011    0.6452 C   0  0  0  0  0  0
   -2.7902    6.0615    1.4948 C   0  0  0  0  0  0
   -2.5749    3.6357    0.8385 C   0  0  0  0  0  0
   -2.2024    3.2525    1.9477 O   0  0  0  0  0  0
   -2.4503    2.9046   -0.2799 N   0  0  0  0  0  0
   -2.0026    1.5160   -0.3526 C   0  0  1  0  0  0
   -2.6886    0.7905   -1.5338 C   0  0  0  0  0  0
   -4.2034    0.9269   -1.5203 C   0  0  0  0  0  0
   -4.8509    1.8178   -2.4034 C   0  0  0  0  0  0
   -6.2570    1.9414   -2.3902 C   0  0  0  0  0  0
   -6.9517    2.8783   -3.3669 C   0  0  0  0  0  0
   -7.8662    3.9310   -2.7083 C   0  0  0  0  0  0
   -7.1710    4.8782   -1.7135 C   0  0  0  0  0  0
   -6.1300    5.8045   -2.3707 C   0  0  0  0  0  0
   -5.6803    6.8119   -1.4689 O   0  0  0  0  0  0
   -7.0138    1.1650   -1.4869 C   0  0  0  0  0  0
   -6.3705    0.2816   -0.5992 C   0  0  0  0  0  0
   -4.9683    0.1617   -0.6160 C   0  0  0  0  0  0
   -0.4558    1.4302   -0.3395 C   0  0  2  0  0  0
    0.0685    1.8956   -1.5684 O   0  0  0  0  0  0
    0.0465   -0.0064   -0.1128 C   0  0  0  0  0  0
    1.4929   -0.0338    0.1929 N   0  3  0  0  0  0
    2.0778   -1.3859    0.3217 C   0  0  0  0  0  0
    1.5335   -2.1345    1.5255 C   0  0  0  0  0  0
    0.4437   -3.0180    1.3764 C   0  0  0  0  0  0
   -0.0869   -3.6983    2.4939 C   0  0  0  0  0  0
    0.4942   -3.4989    3.7646 C   0  0  0  0  0  0
    1.5890   -2.6262    3.9158 C   0  0  0  0  0  0
    2.1071   -1.9430    2.7992 C   0  0  0  0  0  0
   -1.2800   -4.6325    2.3369 C   0  0  0  0  0  0
   -0.9482   -5.8297    1.4324 C   0  0  0  0  0  0
   -2.5273   -3.8788    1.8470 C   0  0  0  0  0  0
   -2.3596    1.0271    0.5562 H   0  0  0  0  0  0
   -0.0695    2.0638    0.4605 H   0  0  0  0  0  0
   -3.9220   11.5736    2.5343 H   0  0  0  0  0  0
   -2.2502   11.0356    2.7230 H   0  0  0  0  0  0
   -3.4841   10.5348    3.8936 H   0  0  0  0  0  0
   -4.7825    8.5219    0.1962 H   0  0  0  0  0  0
   -4.4394    4.4055   -0.9846 H   0  0  0  0  0  0
   -2.0537    5.8836    2.2660 H   0  0  0  0  0  0
   -2.7620    3.3225   -1.1448 H   0  0  0  0  0  0
   -2.3133    1.1718   -2.4842 H   0  0  0  0  0  0
   -2.4437   -0.2718   -1.5175 H   0  0  0  0  0  0
   -4.2663    2.4059   -3.0959 H   0  0  0  0  0  0
   -6.2074    3.3755   -3.9895 H   0  0  0  0  0  0
   -7.5447    2.2670   -4.0478 H   0  0  0  0  0  0
   -8.3409    4.5239   -3.4908 H   0  0  0  0  0  0
   -8.6822    3.4241   -2.1927 H   0  0  0  0  0  0
   -7.9354    5.4997   -1.2459 H   0  0  0  0  0  0
   -6.7259    4.3028   -0.9026 H   0  0  0  0  0  0
   -5.2967    5.2509   -2.8039 H   0  0  0  0  0  0
   -6.5993    6.3232   -3.2068 H   0  0  0  0  0  0
   -8.0910    1.2407   -1.4730 H   0  0  0  0  0  0
   -6.9541   -0.3084    0.0920 H   0  0  0  0  0  0
   -4.4813   -0.5196    0.0663 H   0  0  0  0  0  0
   -0.2122    2.7898   -1.6945 H   0  0  0  0  0  0
   -0.4933   -0.4447    0.7268 H   0  0  0  0  0  0
   -0.1563   -0.6299   -0.9847 H   0  0  0  0  0  0
    1.9726    0.4438   -0.5570 H   0  0  0  0  0  0
    1.8979   -1.9559   -0.5908 H   0  0  0  0  0  0
    3.1594   -1.2886    0.4206 H   0  0  0  0  0  0
    0.0038   -3.1626    0.4003 H   0  0  0  0  0  0
    0.1022   -4.0123    4.6305 H   0  0  0  0  0  0
    2.0291   -2.4781    4.8912 H   0  0  0  0  0  0
    2.9432   -1.2706    2.9249 H   0  0  0  0  0  0
   -1.5171   -5.0342    3.3230 H   0  0  0  0  0  0
   -0.0955   -6.3881    1.8201 H   0  0  0  0  0  0
   -0.7066   -5.5146    0.4170 H   0  0  0  0  0  0
   -1.7910   -6.5188    1.3712 H   0  0  0  0  0  0
   -2.7853   -3.0663    2.5271 H   0  0  0  0  0  0
   -3.3888   -4.5445    1.7902 H   0  0  0  0  0  0
   -2.3780   -3.4491    0.8561 H   0  0  0  0  0  0
    1.6535    0.4736    1.0513 H   0  0  0  0  0  0
  1  2  1  0  0  0
  1 43  1  0  0  0
  1 44  1  0  0  0
  1 45  1  0  0  0
  2  3  1  0  0  0
  3  4  2  0  0  0
  3  5  1  0  0  0
  5 10  1  0  0  0
  5  6  2  0  0  0
  6  7  1  0  0  0
  6 46  1  0  0  0
  7 23  1  0  0  0
  7  8  2  0  0  0
  8  9  1  0  0  0
  8 47  1  0  0  0
  9 10  2  0  0  0
  9 11  1  0  0  0
 10 48  1  0  0  0
 11 12  2  0  0  0
 11 13  1  0  0  0
 13 14  1  0  0  0
 13 49  1  0  0  0
 14 41  1  0  0  0
 14 15  1  0  0  0
 14 27  1  0  0  0
 15 16  1  0  0  0
 15 50  1  0  0  0
 15 51  1  0  0  0
 16 26  1  0  0  0
 16 17  2  0  0  0
 17 18  1  0  0  0
 17 52  1  0  0  0
 18 19  1  0  0  0
 18 24  2  0  0  0
 19 20  1  0  0  0
 19 53  1  0  0  0
 19 54  1  0  0  0
 20 21  1  0  0  0
 20 55  1  0  0  0
 20 56  1  0  0  0
 21 22  1  0  0  0
 21 57  1  0  0  0
 21 58  1  0  0  0
 22 23  1  0  0  0
 22 59  1  0  0  0
 22 60  1  0  0  0
 24 25  1  0  0  0
 24 61  1  0  0  0
 25 26  2  0  0  0
 25 62  1  0  0  0
 26 63  1  0  0  0
 27 42  1  0  0  0
 27 28  1  0  0  0
 27 29  1  0  0  0
 28 64  1  0  0  0
 29 30  1  0  0  0
 29 65  1  0  0  0
 29 66  1  0  0  0
 30 31  1  0  0  0
 30 67  1  0  0  0
 30 81  1  0  0  0
 31 32  1  0  0  0
 31 68  1  0  0  0
 31 69  1  0  0  0
 32 37  1  0  0  0
 32 33  2  0  0  0
 33 34  1  0  0  0
 33 70  1  0  0  0
 34 35  2  0  0  0
 34 38  1  0  0  0
 35 36  1  0  0  0
 35 71  1  0  0  0
 36 37  2  0  0  0
 36 72  1  0  0  0
 37 73  1  0  0  0
 38 39  1  0  0  0
 38 40  1  0  0  0
 38 74  1  0  0  0
 39 75  1  0  0  0
 39 76  1  0  0  0
 39 77  1  0  0  0
 40 78  1  0  0  0
 40 79  1  0  0  0
 40 80  1  0  0  0
M  CHG  1  30   1
M  END
> <s_m_source_file>
BACE_134.smi

> <i_m_source_file_index>
1

> <i_lp_mmshare_version>
42013

> <i_f3d_flags>
0

> <s_epik_input>
TzFbQ0gyXVtDSDJdW0NIMl1bQ0gyXWMoW2NIXVtjSF1bY0hdMilbY0hdYzJbQ0gyXVtDQEhdKFtOSF1DKD1PKWMoW2NIXTMpW2NIXWMoW2NIXWMxMylDKD1PKU9bQ0gzXSlbQ0BIXShbT0hdKVtDSDJdW05IXVtDSDJdYzRbY0hdYyhbQ0hdKFtDSDNdKVtDSDNdKVtjSF1bY0hdW2NIXTQ=

> <s_epik_cmdline>
J2VwaWtfcHl0aG9uJywgJy1waCcsICc3LjAnLCAnLXRuJywgJzgnLCAnLW1hJywgJzIwMCcsICctaW1hZScsICc8aW5maWxlLm1hZT4nLCAnLW9tYWUnLCAnPG91dGZpbGUubWFlPic=

> <r_epik_Ionization_Penalty>
0.0191206

> <r_epik_Ionization_Penalty_Charging>
0.0191194

> <r_epik_Ionization_Penalty_Neutral>
1.18458e-06

> <r_epik_State_Penalty>
0.0152524

> <r_epik_Charging_Adjusted_Penalty>
0.0343718

> <i_epik_Tot_Q>
1

> <i_epik_Tot_abs_Q>
1

> <s_epik_Chemistry_Notes>
This compound has an ester and may undergo hydrolysis at high or low pH.

> <s_lp_Force_Field>
OPLS_2005

> <r_lp_Energy>
27.7784

> <b_lp_Chiralities_Consistent>
1

> <s_lp_Variant>
BACE_134.smi:1-1

$$$$
BACE_134.smi:1
                    3D
 Structure written by MMmdl.
 80 83  0  0  1  0            999 V2000
   -1.3899    9.1116    3.9429 C   0  0  0  0  0  0
   -1.9265    8.1442    3.0567 O   0  0  0  0  0  0
   -2.9015    8.4915    2.1924 C   0  0  0  0  0  0
   -3.3715    9.6286    2.1165 O   0  0  0  0  0  0
   -3.3516    7.3574    1.3337 C   0  0  0  0  0  0
   -4.3461    7.5828    0.3554 C   0  0  0  0  0  0
   -4.8095    6.5429   -0.4747 C   0  0  0  0  0  0
   -4.2538    5.2507   -0.3222 C   0  0  0  0  0  0
   -3.2532    5.0020    0.6441 C   0  0  0  0  0  0
   -2.8136    6.0563    1.4728 C   0  0  0  0  0  0
   -2.6958    3.6196    0.8286 C   0  0  0  0  0  0
   -2.2955    3.2364    1.9283 O   0  0  0  0  0  0
   -2.6376    2.8734   -0.2855 N   0  0  0  0  0  0
   -2.2210    1.4750   -0.3645 C   0  0  1  0  0  0
   -3.0274    0.7256   -1.4524 C   0  0  0  0  0  0
   -4.5307    0.9291   -1.3375 C   0  0  0  0  0  0
   -5.2021    1.8099   -2.2132 C   0  0  0  0  0  0
   -6.5973    1.9967   -2.1089 C   0  0  0  0  0  0
   -7.3178    2.9254   -3.0751 C   0  0  0  0  0  0
   -8.1505    4.0351   -2.4011 C   0  0  0  0  0  0
   -7.3613    4.9867   -1.4838 C   0  0  0  0  0  0
   -6.3337    5.8562   -2.2337 C   0  0  0  0  0  0
   -5.7887    6.8682   -1.3912 O   0  0  0  0  0  0
   -7.3199    1.2917   -1.1228 C   0  0  0  0  0  0
   -6.6522    0.4191   -0.2423 C   0  0  0  0  0  0
   -5.2604    0.2378   -0.3491 C   0  0  0  0  0  0
   -0.6822    1.3697   -0.5058 C   0  0  2  0  0  0
   -0.2946    1.7579   -1.8101 O   0  0  0  0  0  0
   -0.1741   -0.0633   -0.2701 C   0  0  0  0  0  0
    1.2586   -0.0781    0.0218 N   0  0  0  0  0  0
    1.7915   -1.4025    0.3326 C   0  0  0  0  0  0
    1.8531   -2.3139   -0.8787 C   0  0  0  0  0  0
    0.9264   -3.3678   -1.0168 C   0  0  0  0  0  0
    0.9665   -4.2138   -2.1470 C   0  0  0  0  0  0
    1.9478   -3.9972   -3.1382 C   0  0  0  0  0  0
    2.8746   -2.9455   -3.0029 C   0  0  0  0  0  0
    2.8273   -2.1037   -1.8757 C   0  0  0  0  0  0
   -0.0378   -5.3485   -2.3016 C   0  0  0  0  0  0
   -1.4777   -4.8199   -2.4039 C   0  0  0  0  0  0
    0.1083   -6.3898   -1.1805 C   0  0  0  0  0  0
   -2.4921    1.0148    0.5877 H   0  0  0  0  0  0
   -0.2098    2.0390    0.2151 H   0  0  0  0  0  0
   -0.6059    8.6615    4.5518 H   0  0  0  0  0  0
   -2.1611    9.4964    4.6112 H   0  0  0  0  0  0
   -0.9553    9.9465    3.3918 H   0  0  0  0  0  0
   -4.7732    8.5679    0.2325 H   0  0  0  0  0  0
   -4.5954    4.4329   -0.9366 H   0  0  0  0  0  0
   -2.0566    5.8524    2.2167 H   0  0  0  0  0  0
   -2.9591    3.2935   -1.1455 H   0  0  0  0  0  0
   -2.7155    1.0454   -2.4471 H   0  0  0  0  0  0
   -2.8184   -0.3435   -1.4025 H   0  0  0  0  0  0
   -4.6428    2.3416   -2.9692 H   0  0  0  0  0  0
   -6.5958    3.3726   -3.7589 H   0  0  0  0  0  0
   -7.9732    2.3145   -3.6967 H   0  0  0  0  0  0
   -8.6508    4.6200   -3.1736 H   0  0  0  0  0  0
   -8.9511    3.5775   -1.8194 H   0  0  0  0  0  0
   -8.0728    5.6491   -0.9899 H   0  0  0  0  0  0
   -6.8853    4.4204   -0.6842 H   0  0  0  0  0  0
   -5.5515    5.2616   -2.7059 H   0  0  0  0  0  0
   -6.8396    6.3714   -3.0504 H   0  0  0  0  0  0
   -8.3896    1.4144   -1.0385 H   0  0  0  0  0  0
   -7.2089   -0.1154    0.5132 H   0  0  0  0  0  0
   -4.7544   -0.4348    0.3280 H   0  0  0  0  0  0
    0.6442    1.6702   -1.8780 H   0  0  0  0  0  0
   -0.7074   -0.4920    0.5791 H   0  0  0  0  0  0
   -0.4043   -0.6955   -1.1287 H   0  0  0  0  0  0
    1.4665    0.5641    0.7799 H   0  0  0  0  0  0
    2.8062   -1.3004    0.7185 H   0  0  0  0  0  0
    1.2107   -1.8721    1.1276 H   0  0  0  0  0  0
    0.1777   -3.5225   -0.2538 H   0  0  0  0  0  0
    1.9941   -4.6347   -4.0089 H   0  0  0  0  0  0
    3.6214   -2.7837   -3.7661 H   0  0  0  0  0  0
    3.5375   -1.2955   -1.7786 H   0  0  0  0  0  0
    0.1818   -5.8589   -3.2405 H   0  0  0  0  0  0
   -1.5809   -4.1269   -3.2395 H   0  0  0  0  0  0
   -1.7810   -4.2953   -1.4974 H   0  0  0  0  0  0
   -2.1840   -5.6348   -2.5646 H   0  0  0  0  0  0
    1.1207   -6.7942   -1.1531 H   0  0  0  0  0  0
   -0.5754   -7.2259   -1.3303 H   0  0  0  0  0  0
   -0.1056   -5.9610   -0.2011 H   0  0  0  0  0  0
  1  2  1  0  0  0
  1 43  1  0  0  0
  1 44  1  0  0  0
  1 45  1  0  0  0
  2  3  1  0  0  0
  3  4  2  0  0  0
  3  5  1  0  0  0
  5 10  1  0  0  0
  5  6  2  0  0  0
  6  7  1  0  0  0
  6 46  1  0  0  0
  7 23  1  0  0  0
  7  8  2  0  0  0
  8  9  1  0  0  0
  8 47  1  0  0  0
  9 10  2  0  0  0
  9 11  1  0  0  0
 10 48  1  0  0  0
 11 12  2  0  0  0
 11 13  1  0  0  0
 13 14  1  0  0  0
 13 49  1  0  0  0
 14 41  1  0  0  0
 14 15  1  0  0  0
 14 27  1  0  0  0
 15 16  1  0  0  0
 15 50  1  0  0  0
 15 51  1  0  0  0
 16 26  1  0  0  0
 16 17  2  0  0  0
 17 18  1  0  0  0
 17 52  1  0  0  0
 18 19  1  0  0  0
 18 24  2  0  0  0
 19 20  1  0  0  0
 19 53  1  0  0  0
 19 54  1  0  0  0
 20 21  1  0  0  0
 20 55  1  0  0  0
 20 56  1  0  0  0
 21 22  1  0  0  0
 21 57  1  0  0  0
 21 58  1  0  0  0
 22 23  1  0  0  0
 22 59  1  0  0  0
 22 60  1  0  0  0
 24 25  1  0  0  0
 24 61  1  0  0  0
 25 26  2  0  0  0
 25 62  1  0  0  0
 26 63  1  0  0  0
 27 42  1  0  0  0
 27 28  1  0  0  0
 27 29  1  0  0  0
 28 64  1  0  0  0
 29 30  1  0  0  0
 29 65  1  0  0  0
 29 66  1  0  0  0
 30 31  1  0  0  0
 30 67  1  0  0  0
 31 32  1  0  0  0
 31 68  1  0  0  0
 31 69  1  0  0  0
 32 37  1  0  0  0
 32 33  2  0  0  0
 33 34  1  0  0  0
 33 70  1  0  0  0
 34 35  2  0  0  0
 34 38  1  0  0  0
 35 36  1  0  0  0
 35 71  1  0  0  0
 36 37  2  0  0  0
 36 72  1  0  0  0
 37 73  1  0  0  0
 38 39  1  0  0  0
 38 40  1  0  0  0
 38 74  1  0  0  0
 39 75  1  0  0  0
 39 76  1  0  0  0
 39 77  1  0  0  0
 40 78  1  0  0  0
 40 79  1  0  0  0
 40 80  1  0  0  0
M  END
> <s_m_source_file>
BACE_134.smi

> <i_m_source_file_index>
1

> <i_lp_mmshare_version>
42013

> <i_f3d_flags>
0

> <s_epik_input>
TzFbQ0gyXVtDSDJdW0NIMl1bQ0gyXWMoW2NIXVtjSF1bY0hdMilbY0hdYzJbQ0gyXVtDQEhdKFtOSF1DKD1PKWMoW2NIXTMpW2NIXWMoW2NIXWMxMylDKD1PKU9bQ0gzXSlbQ0BIXShbT0hdKVtDSDJdW05IXVtDSDJdYzRbY0hdYyhbQ0hdKFtDSDNdKVtDSDNdKVtjSF1bY0hdW2NIXTQ=

> <s_epik_cmdline>
J2VwaWtfcHl0aG9uJywgJy1waCcsICc3LjAnLCAnLXRuJywgJzgnLCAnLW1hJywgJzIwMCcsICctaW1hZScsICc8aW5maWxlLm1hZT4nLCAnLW9tYWUnLCAnPG91dGZpbGUubWFlPic=

> <r_epik_Ionization_Penalty>
2.04391

> <r_epik_Ionization_Penalty_Charging>
0

> <r_epik_Ionization_Penalty_Neutral>
2.04391

> <r_epik_State_Penalty>
2.17586

> <r_epik_Charging_Adjusted_Penalty>
2.17586

> <i_epik_Tot_Q>
0

> <i_epik_Tot_abs_Q>
0

> <s_epik_Chemistry_Notes>
This compound has an ester and may undergo hydrolysis at high or low pH.

> <s_lp_Force_Field>
OPLS_2005

> <r_lp_Energy>
36.8575

> <b_lp_Chiralities_Consistent>
1

> <s_lp_Variant>
BACE_134.smi:1-2

$$$$
