BACE_135.smi:1
                    3D
 Structure written by MMmdl.
 86 89  0  0  1  0            999 V2000
    1.1941    2.7428    8.3186 C   0  0  0  0  0  0
    2.0158    3.1877    7.1121 C   0  0  0  0  0  0
    3.0787    3.7874    7.2593 O   0  0  0  0  0  0
    1.4922    2.8686    5.7126 C   0  0  0  0  0  0
    0.2992    2.1006    5.7913 O   0  0  0  0  0  0
   -0.2895    1.7188    4.6057 C   0  0  0  0  0  0
   -1.4349    0.9044    4.6849 C   0  0  0  0  0  0
   -2.0981    0.4483    3.5281 C   0  0  0  0  0  0
   -1.6063    0.8354    2.2570 C   0  0  0  0  0  0
   -0.4666    1.6663    2.1583 C   0  0  0  0  0  0
    0.1833    2.1030    3.3295 C   0  0  0  0  0  0
    0.0304    2.1553    0.8284 C   0  0  0  0  0  0
   -0.0106    3.3561    0.5721 O   0  0  0  0  0  0
    0.5594    1.2723   -0.0400 N   0  0  0  0  0  0
    0.7927   -0.1645    0.1259 C   0  0  1  0  0  0
    0.3282   -0.8669   -1.1728 C   0  0  0  0  0  0
   -0.2577   -2.2416   -0.9183 C   0  0  0  0  0  0
   -1.5331   -2.3436   -0.3295 C   0  0  0  0  0  0
   -2.0856   -3.6051   -0.0378 C   0  0  0  0  0  0
   -3.4421   -3.6974    0.6349 C   0  0  0  0  0  0
   -3.3493   -3.7746    2.1693 C   0  0  0  0  0  0
   -2.7469   -2.5354    2.8624 C   0  0  0  0  0  0
   -3.6209   -1.2730    2.7539 C   0  0  0  0  0  0
   -3.2272   -0.3154    3.7309 O   0  0  0  0  0  0
   -1.3654   -4.7736   -0.3623 C   0  0  0  0  0  0
   -0.0985   -4.6760   -0.9712 C   0  0  0  0  0  0
    0.4571   -3.4115   -1.2481 C   0  0  0  0  0  0
    2.2816   -0.4505    0.4712 C   0  0  2  0  0  0
    2.4058   -1.8144    0.8251 O   0  0  0  0  0  0
    2.8366    0.3771    1.6504 C   0  0  0  0  0  0
    4.2725    0.1107    1.8792 N   0  3  0  0  0  0
    4.8995    0.9607    2.9123 C   0  0  0  0  0  0
    5.1401    2.3696    2.4012 C   0  0  0  0  0  0
    4.3125    3.4396    2.8014 C   0  0  0  0  0  0
    4.5621    4.7366    2.2932 C   0  0  0  0  0  0
    5.6440    4.8805    1.3904 C   0  0  0  0  0  0
    6.4081    3.7475    1.0489 C   0  0  0  0  0  0
    6.1668    2.5139    1.5374 N   0  0  0  0  0  0
    3.6715    5.9181    2.7181 C   0  0  0  0  0  0
    4.1408    7.2652    2.1245 C   0  0  0  0  0  0
    3.6828    6.0552    4.2548 C   0  0  0  0  0  0
    2.2274    5.6699    2.2400 C   0  0  0  0  0  0
    0.1799   -0.5308    0.9471 H   0  0  0  0  0  0
    2.8996   -0.2635   -0.4083 H   0  0  0  0  0  0
    0.1919    3.1693    8.2730 H   0  0  0  0  0  0
    1.6655    3.0709    9.2452 H   0  0  0  0  0  0
    1.1096    1.6562    8.3408 H   0  0  0  0  0  0
    1.3040    3.8053    5.1865 H   0  0  0  0  0  0
    2.2576    2.3140    5.1688 H   0  0  0  0  0  0
   -1.8122    0.6186    5.6561 H   0  0  0  0  0  0
   -2.1070    0.5357    1.3497 H   0  0  0  0  0  0
    1.0507    2.7351    3.2261 H   0  0  0  0  0  0
    0.8697    1.6569   -0.9210 H   0  0  0  0  0  0
   -0.4578   -0.2855   -1.6585 H   0  0  0  0  0  0
    1.1401   -0.9259   -1.8990 H   0  0  0  0  0  0
   -2.0807   -1.4469   -0.0795 H   0  0  0  0  0  0
   -4.0562   -2.8479    0.3341 H   0  0  0  0  0  0
   -3.9548   -4.5835    0.2589 H   0  0  0  0  0  0
   -4.3456   -3.9551    2.5745 H   0  0  0  0  0  0
   -2.7585   -4.6503    2.4403 H   0  0  0  0  0  0
   -2.6283   -2.7765    3.9193 H   0  0  0  0  0  0
   -1.7414   -2.3328    2.4934 H   0  0  0  0  0  0
   -3.6453   -0.8726    1.7421 H   0  0  0  0  0  0
   -4.6529   -1.5368    2.9864 H   0  0  0  0  0  0
   -1.7805   -5.7464   -0.1423 H   0  0  0  0  0  0
    0.4511   -5.5722   -1.2187 H   0  0  0  0  0  0
    1.4349   -3.3431   -1.7022 H   0  0  0  0  0  0
    1.7892   -2.0073    1.5155 H   0  0  0  0  0  0
    2.7281    1.4401    1.4404 H   0  0  0  0  0  0
    2.2775    0.1701    2.5640 H   0  0  0  0  0  0
    4.3667   -0.8556    2.1578 H   0  0  0  0  0  0
    4.2873    0.9747    3.8153 H   0  0  0  0  0  0
    5.8575    0.5194    3.1899 H   0  0  0  0  0  0
    3.4976    3.2634    3.4861 H   0  0  0  0  0  0
    5.9066    5.8301    0.9506 H   0  0  0  0  0  0
    7.2360    3.8348    0.3610 H   0  0  0  0  0  0
    3.5009    8.0855    2.4517 H   0  0  0  0  0  0
    4.1126    7.2583    1.0344 H   0  0  0  0  0  0
    5.1569    7.5102    2.4359 H   0  0  0  0  0  0
    4.6943    6.2147    4.6300 H   0  0  0  0  0  0
    3.2864    5.1698    4.7501 H   0  0  0  0  0  0
    3.0761    6.9002    4.5821 H   0  0  0  0  0  0
    1.5721    6.4995    2.5084 H   0  0  0  0  0  0
    1.8018    4.7717    2.6831 H   0  0  0  0  0  0
    2.1829    5.5536    1.1565 H   0  0  0  0  0  0
    4.7749    0.2455    1.0133 H   0  0  0  0  0  0
  1  2  1  0  0  0
  1 45  1  0  0  0
  1 46  1  0  0  0
  1 47  1  0  0  0
  2  3  2  0  0  0
  2  4  1  0  0  0
  4  5  1  0  0  0
  4 48  1  0  0  0
  4 49  1  0  0  0
  5  6  1  0  0  0
  6 11  1  0  0  0
  6  7  2  0  0  0
  7  8  1  0  0  0
  7 50  1  0  0  0
  8 24  1  0  0  0
  8  9  2  0  0  0
  9 10  1  0  0  0
  9 51  1  0  0  0
 10 11  2  0  0  0
 10 12  1  0  0  0
 11 52  1  0  0  0
 12 13  2  0  0  0
 12 14  1  0  0  0
 14 15  1  0  0  0
 14 53  1  0  0  0
 15 43  1  0  0  0
 15 16  1  0  0  0
 15 28  1  0  0  0
 16 17  1  0  0  0
 16 54  1  0  0  0
 16 55  1  0  0  0
 17 27  1  0  0  0
 17 18  2  0  0  0
 18 19  1  0  0  0
 18 56  1  0  0  0
 19 20  1  0  0  0
 19 25  2  0  0  0
 20 21  1  0  0  0
 20 57  1  0  0  0
 20 58  1  0  0  0
 21 22  1  0  0  0
 21 59  1  0  0  0
 21 60  1  0  0  0
 22 23  1  0  0  0
 22 61  1  0  0  0
 22 62  1  0  0  0
 23 24  1  0  0  0
 23 63  1  0  0  0
 23 64  1  0  0  0
 25 26  1  0  0  0
 25 65  1  0  0  0
 26 27  2  0  0  0
 26 66  1  0  0  0
 27 67  1  0  0  0
 28 44  1  0  0  0
 28 29  1  0  0  0
 28 30  1  0  0  0
 29 68  1  0  0  0
 30 31  1  0  0  0
 30 69  1  0  0  0
 30 70  1  0  0  0
 31 32  1  0  0  0
 31 71  1  0  0  0
 31 86  1  0  0  0
 32 33  1  0  0  0
 32 72  1  0  0  0
 32 73  1  0  0  0
 33 38  1  0  0  0
 33 34  2  0  0  0
 34 35  1  0  0  0
 34 74  1  0  0  0
 35 36  2  0  0  0
 35 39  1  0  0  0
 36 37  1  0  0  0
 36 75  1  0  0  0
 37 38  2  0  0  0
 37 76  1  0  0  0
 39 40  1  0  0  0
 39 41  1  0  0  0
 39 42  1  0  0  0
 40 77  1  0  0  0
 40 78  1  0  0  0
 40 79  1  0  0  0
 41 80  1  0  0  0
 41 81  1  0  0  0
 41 82  1  0  0  0
 42 83  1  0  0  0
 42 84  1  0  0  0
 42 85  1  0  0  0
M  CHG  1  31   1
M  END
> <s_m_source_file>
BACE_135.smi

> <i_m_source_file_index>
1

> <i_lp_mmshare_version>
42013

> <i_f3d_flags>
0

> <s_epik_input>
W0NIM11DKD1PKVtDSDJdT2MoW2NIXWMxMilbY0hdYyhbY0hdMSlDKD1PKVtOSF1bQ0BASF0oW0NIMl1jM1tjSF1jKFtjSF1bY0hdW2NIXTMpW0NIMl1bQ0gyXVtDSDJdW0NIMl1PMilbQ0BIXShbT0hdKVtDSDJdW05IXVtDSDJdYzRbY0hdYyhbY0hdW2NIXW40KUMoW0NIM10pKFtDSDNdKVtDSDNd

> <s_epik_cmdline>
J2VwaWtfcHl0aG9uJywgJy1waCcsICc3LjAnLCAnLXRuJywgJzgnLCAnLW1hJywgJzIwMCcsICctaW1hZScsICc8aW5maWxlLm1hZT4nLCAnLW9tYWUnLCAnPG91dGZpbGUubWFlPic=

> <r_lp_tautomer_probability>
1

> <r_epik_Ionization_Penalty>
0.0381096

> <r_epik_Ionization_Penalty_Charging>
0.0378912

> <r_epik_Ionization_Penalty_Neutral>
0.000218347

> <r_epik_State_Penalty>
0.031743

> <r_epik_Charging_Adjusted_Penalty>
0.0696342

> <i_epik_Tot_Q>
1

> <i_epik_Tot_abs_Q>
1

> <s_lp_Force_Field>
OPLS_2005

> <r_lp_Energy>
34.9043

> <b_lp_Chiralities_Consistent>
1

> <s_lp_Variant>
BACE_135.smi:1-1

$$$$
BACE_135.smi:1
                    3D
 Structure written by MMmdl.
 85 88  0  0  1  0            999 V2000
    0.3395    2.3961    9.1735 C   0  0  0  0  0  0
    0.9358    2.5279    7.7779 C   0  0  0  0  0  0
    2.0780    2.9532    7.6148 O   0  0  0  0  0  0
    0.0512    2.1018    6.6080 C   0  0  0  0  0  0
    0.7537    2.2659    5.3837 O   0  0  0  0  0  0
    0.1219    1.8606    4.2284 C   0  0  0  0  0  0
   -1.1948    1.3419    4.1845 C   0  0  0  0  0  0
   -1.7750    0.9259    2.9698 C   0  0  0  0  0  0
   -1.0340    1.0534    1.7703 C   0  0  0  0  0  0
    0.2759    1.5849    1.7973 C   0  0  0  0  0  0
    0.8411    1.9820    3.0250 C   0  0  0  0  0  0
    1.0595    1.7884    0.5331 C   0  0  0  0  0  0
    1.3017    2.9307    0.1516 O   0  0  0  0  0  0
    1.5092    0.7110   -0.1389 N   0  0  0  0  0  0
    1.3628   -0.7079    0.1981 C   0  0  1  0  0  0
    0.8543   -1.4543   -1.0542 C   0  0  0  0  0  0
    0.0414   -2.6796   -0.6913 C   0  0  0  0  0  0
   -1.2983   -2.5117   -0.2930 C   0  0  0  0  0  0
   -2.0647   -3.6175    0.1194 C   0  0  0  0  0  0
   -3.4899   -3.4087    0.5953 C   0  0  0  0  0  0
   -3.5939   -3.1883    2.1156 C   0  0  0  0  0  0
   -2.8726   -1.9390    2.6624 C   0  0  0  0  0  0
   -3.4651   -0.6041    2.1724 C   0  0  0  0  0  0
   -3.0696    0.4599    3.0315 O   0  0  0  0  0  0
   -1.4922   -4.9066    0.1025 C   0  0  0  0  0  0
   -0.1581   -5.0815   -0.3170 C   0  0  0  0  0  0
    0.6116   -3.9686   -0.7104 C   0  0  0  0  0  0
    2.6666   -1.3364    0.7828 C   0  0  2  0  0  0
    2.2812   -2.2479    1.7925 O   0  0  0  0  0  0
    3.6749   -0.3637    1.4337 C   0  0  0  0  0  0
    4.5269    0.2659    0.4263 N   0  0  0  0  0  0
    5.4759    1.2411    0.9556 C   0  0  0  0  0  0
    4.8672    2.6192    1.1325 C   0  0  0  0  0  0
    4.5654    3.1155    2.4179 C   0  0  0  0  0  0
    4.0204    4.4178    2.5435 C   0  0  0  0  0  0
    3.8037    5.1464    1.3506 C   0  0  0  0  0  0
    4.1338    4.5584    0.1145 C   0  0  0  0  0  0
    4.6579    3.3217   -0.0013 N   0  0  0  0  0  0
    3.6890    5.0554    3.9046 C   0  0  0  0  0  0
    4.5777    6.2980    4.1141 C   0  0  0  0  0  0
    3.9348    4.0947    5.0882 C   0  0  0  0  0  0
    2.2068    5.4842    3.9438 C   0  0  0  0  0  0
    0.5834   -0.7912    0.9524 H   0  0  0  0  0  0
    3.1867   -1.9141    0.0175 H   0  0  0  0  0  0
    0.3026    1.3476    9.4694 H   0  0  0  0  0  0
   -0.6734    2.7985    9.1947 H   0  0  0  0  0  0
    0.9424    2.9402    9.9007 H   0  0  0  0  0  0
   -0.2329    1.0576    6.7450 H   0  0  0  0  0  0
   -0.8548    2.7085    6.6067 H   0  0  0  0  0  0
   -1.7873    1.2451    5.0813 H   0  0  0  0  0  0
   -1.4654    0.7767    0.8203 H   0  0  0  0  0  0
    1.8422    2.3867    3.0469 H   0  0  0  0  0  0
    2.0476    0.9029   -0.9715 H   0  0  0  0  0  0
    0.2020   -0.8038   -1.6397 H   0  0  0  0  0  0
    1.6767   -1.7220   -1.7186 H   0  0  0  0  0  0
   -1.7289   -1.5215   -0.2757 H   0  0  0  0  0  0
   -3.9301   -2.5659    0.0613 H   0  0  0  0  0  0
   -4.0816   -4.2809    0.3145 H   0  0  0  0  0  0
   -4.6472   -3.1363    2.3929 H   0  0  0  0  0  0
   -3.1991   -4.0688    2.6238 H   0  0  0  0  0  0
   -2.9506   -1.9668    3.7497 H   0  0  0  0  0  0
   -1.8049   -1.9804    2.4453 H   0  0  0  0  0  0
   -3.2374   -0.4117    1.1255 H   0  0  0  0  0  0
   -4.5524   -0.6555    2.2314 H   0  0  0  0  0  0
   -2.0710   -5.7627    0.4170 H   0  0  0  0  0  0
    0.2791   -6.0691   -0.3251 H   0  0  0  0  0  0
    1.6400   -4.1050   -1.0113 H   0  0  0  0  0  0
    1.8318   -1.7694    2.4723 H   0  0  0  0  0  0
    3.1584    0.3832    2.0366 H   0  0  0  0  0  0
    4.3131   -0.9177    2.1238 H   0  0  0  0  0  0
    5.0171   -0.4402   -0.1130 H   0  0  0  0  0  0
    5.9094    0.8917    1.8936 H   0  0  0  0  0  0
    6.3086    1.3430    0.2590 H   0  0  0  0  0  0
    4.7646    2.4921    3.2757 H   0  0  0  0  0  0
    3.3954    6.1455    1.3717 H   0  0  0  0  0  0
    3.9752    5.0989   -0.8069 H   0  0  0  0  0  0
    4.3819    6.7680    5.0786 H   0  0  0  0  0  0
    4.4076    7.0548    3.3480 H   0  0  0  0  0  0
    5.6359    6.0352    4.0867 H   0  0  0  0  0  0
    4.9805    3.7919    5.1538 H   0  0  0  0  0  0
    3.3264    3.1933    5.0087 H   0  0  0  0  0  0
    3.6835    4.5694    6.0371 H   0  0  0  0  0  0
    1.9463    5.9193    4.9093 H   0  0  0  0  0  0
    1.5414    4.6374    3.7812 H   0  0  0  0  0  0
    1.9741    6.2317    3.1857 H   0  0  0  0  0  0
  1  2  1  0  0  0
  1 45  1  0  0  0
  1 46  1  0  0  0
  1 47  1  0  0  0
  2  3  2  0  0  0
  2  4  1  0  0  0
  4  5  1  0  0  0
  4 48  1  0  0  0
  4 49  1  0  0  0
  5  6  1  0  0  0
  6 11  1  0  0  0
  6  7  2  0  0  0
  7  8  1  0  0  0
  7 50  1  0  0  0
  8 24  1  0  0  0
  8  9  2  0  0  0
  9 10  1  0  0  0
  9 51  1  0  0  0
 10 11  2  0  0  0
 10 12  1  0  0  0
 11 52  1  0  0  0
 12 13  2  0  0  0
 12 14  1  0  0  0
 14 15  1  0  0  0
 14 53  1  0  0  0
 15 43  1  0  0  0
 15 16  1  0  0  0
 15 28  1  0  0  0
 16 17  1  0  0  0
 16 54  1  0  0  0
 16 55  1  0  0  0
 17 27  1  0  0  0
 17 18  2  0  0  0
 18 19  1  0  0  0
 18 56  1  0  0  0
 19 20  1  0  0  0
 19 25  2  0  0  0
 20 21  1  0  0  0
 20 57  1  0  0  0
 20 58  1  0  0  0
 21 22  1  0  0  0
 21 59  1  0  0  0
 21 60  1  0  0  0
 22 23  1  0  0  0
 22 61  1  0  0  0
 22 62  1  0  0  0
 23 24  1  0  0  0
 23 63  1  0  0  0
 23 64  1  0  0  0
 25 26  1  0  0  0
 25 65  1  0  0  0
 26 27  2  0  0  0
 26 66  1  0  0  0
 27 67  1  0  0  0
 28 44  1  0  0  0
 28 29  1  0  0  0
 28 30  1  0  0  0
 29 68  1  0  0  0
 30 31  1  0  0  0
 30 69  1  0  0  0
 30 70  1  0  0  0
 31 32  1  0  0  0
 31 71  1  0  0  0
 32 33  1  0  0  0
 32 72  1  0  0  0
 32 73  1  0  0  0
 33 38  1  0  0  0
 33 34  2  0  0  0
 34 35  1  0  0  0
 34 74  1  0  0  0
 35 36  2  0  0  0
 35 39  1  0  0  0
 36 37  1  0  0  0
 36 75  1  0  0  0
 37 38  2  0  0  0
 37 76  1  0  0  0
 39 40  1  0  0  0
 39 41  1  0  0  0
 39 42  1  0  0  0
 40 77  1  0  0  0
 40 78  1  0  0  0
 40 79  1  0  0  0
 41 80  1  0  0  0
 41 81  1  0  0  0
 41 82  1  0  0  0
 42 83  1  0  0  0
 42 84  1  0  0  0
 42 85  1  0  0  0
M  END
> <s_m_source_file>
BACE_135.smi

> <i_m_source_file_index>
1

> <i_lp_mmshare_version>
42013

> <i_f3d_flags>
0

> <s_epik_input>
W0NIM11DKD1PKVtDSDJdT2MoW2NIXWMxMilbY0hdYyhbY0hdMSlDKD1PKVtOSF1bQ0BASF0oW0NIMl1jM1tjSF1jKFtjSF1bY0hdW2NIXTMpW0NIMl1bQ0gyXVtDSDJdW0NIMl1PMilbQ0BIXShbT0hdKVtDSDJdW05IXVtDSDJdYzRbY0hdYyhbY0hdW2NIXW40KUMoW0NIM10pKFtDSDNdKVtDSDNd

> <s_epik_cmdline>
J2VwaWtfcHl0aG9uJywgJy1waCcsICc3LjAnLCAnLXRuJywgJzgnLCAnLW1hJywgJzIwMCcsICctaW1hZScsICc8aW5maWxlLm1hZT4nLCAnLW9tYWUnLCAnPG91dGZpbGUubWFlPic=

> <r_lp_tautomer_probability>
1

> <r_epik_Ionization_Penalty>
1.64963

> <r_epik_Ionization_Penalty_Charging>
0

> <r_epik_Ionization_Penalty_Neutral>
1.64963

> <r_epik_State_Penalty>
1.7498

> <r_epik_Charging_Adjusted_Penalty>
1.7498

> <i_epik_Tot_Q>
0

> <i_epik_Tot_abs_Q>
0

> <s_lp_Force_Field>
OPLS_2005

> <r_lp_Energy>
38.1342

> <b_lp_Chiralities_Consistent>
1

> <s_lp_Variant>
BACE_135.smi:1-2

$$$$
