BACE_11.smi:1
                    3D
 Structure written by MMmdl.
 81 83  0  0  1  0            999 V2000
   -5.8823    3.2782   -2.5838 C   0  0  0  0  0  0
   -5.0028    2.0211   -2.4921 C   0  0  0  0  0  0
   -5.8143    0.7411   -2.7469 C   0  0  0  0  0  0
   -4.2511    1.9533   -1.1683 C   0  0  0  0  0  0
   -2.8394    1.9580   -1.1569 C   0  0  0  0  0  0
   -2.1337    1.8947    0.0631 C   0  0  0  0  0  0
   -0.6188    1.8898    0.0654 C   0  0  0  0  0  0
   -0.1094    0.5066    0.0206 N   0  3  0  0  0  0
    1.3637    0.4060    0.0218 C   0  0  0  0  0  0
    1.8240   -1.0665   -0.0165 C   0  0  1  0  0  0
    1.3941   -1.6032   -1.2540 O   0  0  0  0  0  0
    3.3612   -1.2630    0.1057 C   0  0  2  0  0  0
    3.8373   -2.7348   -0.0236 C   0  0  0  0  0  0
    3.4245   -3.6837    1.0946 C   0  0  0  0  0  0
    4.3825   -4.1396    2.0259 C   0  0  0  0  0  0
    4.0227   -5.0535    3.0499 C   0  0  0  0  0  0
    2.6879   -5.5003    3.1205 C   0  0  0  0  0  0
    1.7320   -5.0659    2.1848 C   0  0  0  0  0  0
    2.1023   -4.1691    1.1674 C   0  0  0  0  0  0
    4.8908   -5.5618    3.9950 O   0  0  0  0  0  0
    6.2469   -5.1258    4.0237 C   0  0  0  0  0  0
    6.3791   -3.7069    4.6009 C   0  0  0  0  0  0
    5.8279   -3.5759    6.0295 C   0  0  0  0  0  0
    5.8494   -2.1424    6.5960 C   0  0  0  0  0  0
    4.8233   -1.1759    5.9552 C   0  0  0  0  0  0
    5.2916   -0.4421    4.6780 C   0  0  0  0  0  0
    6.4710   -0.5436    4.3416 O   0  0  0  0  0  0
    4.3939    0.3082    3.9836 N   0  0  0  0  0  0
    2.9634    0.2629    4.3236 C   0  0  0  0  0  0
    4.7448    1.1552    2.8130 C   0  0  1  0  0  0
    6.0861    1.9191    2.9235 C   0  0  0  0  0  0
    4.4823    0.5385    1.4239 C   0  0  0  0  0  0
    4.7934    1.1839    0.4227 O   0  0  0  0  0  0
    3.8595   -0.6541    1.3457 N   0  0  0  0  0  0
   -2.8434    1.8265    1.2798 C   0  0  0  0  0  0
   -4.2509    1.8208    1.2749 C   0  0  0  0  0  0
   -4.9526    1.8829    0.0557 C   0  0  0  0  0  0
    1.3222   -1.5977    0.7916 H   0  0  0  0  0  0
    3.8057   -0.7463   -0.7469 H   0  0  0  0  0  0
    4.0233    1.9726    2.8463 H   0  0  0  0  0  0
   -5.2878    4.1826   -2.4506 H   0  0  0  0  0  0
   -6.6660    3.2793   -1.8256 H   0  0  0  0  0  0
   -6.3676    3.3452   -3.5581 H   0  0  0  0  0  0
   -4.2622    2.0933   -3.2899 H   0  0  0  0  0  0
   -5.1706   -0.1391   -2.7363 H   0  0  0  0  0  0
   -6.3058    0.7768   -3.7196 H   0  0  0  0  0  0
   -6.5878    0.5976   -1.9920 H   0  0  0  0  0  0
   -2.2933    2.0087   -2.0880 H   0  0  0  0  0  0
   -0.2469    2.4489   -0.7945 H   0  0  0  0  0  0
   -0.2507    2.3923    0.9612 H   0  0  0  0  0  0
   -0.4670    0.0072    0.8224 H   0  0  0  0  0  0
    1.7764    0.9603   -0.8227 H   0  0  0  0  0  0
    1.7170    0.8945    0.9293 H   0  0  0  0  0  0
    1.8792   -1.1866   -1.9506 H   0  0  0  0  0  0
    3.4946   -3.1586   -0.9679 H   0  0  0  0  0  0
    4.9259   -2.7404   -0.0948 H   0  0  0  0  0  0
    5.3962   -3.7846    1.9255 H   0  0  0  0  0  0
    2.3967   -6.1960    3.8939 H   0  0  0  0  0  0
    0.7167   -5.4299    2.2413 H   0  0  0  0  0  0
    1.3658   -3.8644    0.4390 H   0  0  0  0  0  0
    6.8013   -5.8206    4.6550 H   0  0  0  0  0  0
    6.7034   -5.1986    3.0360 H   0  0  0  0  0  0
    7.4277   -3.4085    4.5889 H   0  0  0  0  0  0
    5.8615   -3.0138    3.9462 H   0  0  0  0  0  0
    4.8068   -3.9568    6.0700 H   0  0  0  0  0  0
    6.4122   -4.2214    6.6861 H   0  0  0  0  0  0
    5.6134   -2.2091    7.6586 H   0  0  0  0  0  0
    6.8608   -1.7357    6.5597 H   0  0  0  0  0  0
    3.9011   -1.7259    5.7697 H   0  0  0  0  0  0
    4.5797   -0.4044    6.6864 H   0  0  0  0  0  0
    2.7916    0.6040    5.3451 H   0  0  0  0  0  0
    2.5730   -0.7505    4.2223 H   0  0  0  0  0  0
    2.3536    0.8901    3.6733 H   0  0  0  0  0  0
    6.1232    2.7465    2.2141 H   0  0  0  0  0  0
    6.9444    1.2839    2.7051 H   0  0  0  0  0  0
    6.2199    2.3470    3.9177 H   0  0  0  0  0  0
    3.6488   -1.1365    2.2077 H   0  0  0  0  0  0
   -2.3125    1.7765    2.2193 H   0  0  0  0  0  0
   -4.7941    1.7681    2.2072 H   0  0  0  0  0  0
   -6.0327    1.8761    0.0655 H   0  0  0  0  0  0
   -0.4594    0.0618   -0.8163 H   0  0  0  0  0  0
  1  2  1  0  0  0
  1 41  1  0  0  0
  1 42  1  0  0  0
  1 43  1  0  0  0
  2  3  1  0  0  0
  2  4  1  0  0  0
  2 44  1  0  0  0
  3 45  1  0  0  0
  3 46  1  0  0  0
  3 47  1  0  0  0
  4 37  1  0  0  0
  4  5  2  0  0  0
  5  6  1  0  0  0
  5 48  1  0  0  0
  6  7  1  0  0  0
  6 35  2  0  0  0
  7  8  1  0  0  0
  7 49  1  0  0  0
  7 50  1  0  0  0
  8  9  1  0  0  0
  8 51  1  0  0  0
  8 81  1  0  0  0
  9 10  1  0  0  0
  9 52  1  0  0  0
  9 53  1  0  0  0
 10 38  1  0  0  0
 10 11  1  0  0  0
 10 12  1  0  0  0
 11 54  1  0  0  0
 12 39  1  0  0  0
 12 34  1  0  0  0
 12 13  1  0  0  0
 13 14  1  0  0  0
 13 55  1  0  0  0
 13 56  1  0  0  0
 14 19  1  0  0  0
 14 15  2  0  0  0
 15 16  1  0  0  0
 15 57  1  0  0  0
 16 17  2  0  0  0
 16 20  1  0  0  0
 17 18  1  0  0  0
 17 58  1  0  0  0
 18 19  2  0  0  0
 18 59  1  0  0  0
 19 60  1  0  0  0
 20 21  1  0  0  0
 21 22  1  0  0  0
 21 61  1  0  0  0
 21 62  1  0  0  0
 22 23  1  0  0  0
 22 63  1  0  0  0
 22 64  1  0  0  0
 23 24  1  0  0  0
 23 65  1  0  0  0
 23 66  1  0  0  0
 24 25  1  0  0  0
 24 67  1  0  0  0
 24 68  1  0  0  0
 25 26  1  0  0  0
 25 69  1  0  0  0
 25 70  1  0  0  0
 26 27  2  0  0  0
 26 28  1  0  0  0
 28 29  1  0  0  0
 28 30  1  0  0  0
 29 71  1  0  0  0
 29 72  1  0  0  0
 29 73  1  0  0  0
 30 40  1  0  0  0
 30 31  1  0  0  0
 30 32  1  0  0  0
 31 74  1  0  0  0
 31 75  1  0  0  0
 31 76  1  0  0  0
 32 33  2  0  0  0
 32 34  1  0  0  0
 34 77  1  0  0  0
 35 36  1  0  0  0
 35 78  1  0  0  0
 36 37  2  0  0  0
 36 79  1  0  0  0
 37 80  1  0  0  0
M  CHG  1   8   1
M  END
> <s_m_source_file>
BACE_11.smi

> <i_m_source_file_index>
1

> <i_lp_mmshare_version>
42013

> <i_f3d_flags>
0

> <s_epik_input>
W0NIM11bQ0hdKFtDSDNdKWMxW2NIXWMoW2NIXVtjSF1bY0hdMSlbQ0gyXVtOSF1bQ0gyXVtDQEBIXShbT0hdKVtDQEhdKFtDSDJdMilbTkhdQyg9TylbQ0BIXShbQ0gzXSlOKFtDSDNdKUMoPU8pW0NIMl1bQ0gyXVtDSDJdW0NIMl1bQ0gyXU9jKFtjSF1jMjMpW2NIXVtjSF1bY0hdMw==

> <s_epik_cmdline>
J2VwaWtfcHl0aG9uJywgJy1waCcsICc3LjAnLCAnLXRuJywgJzgnLCAnLW1hJywgJzIwMCcsICctaW1hZScsICc8aW5maWxlLm1hZT4nLCAnLW9tYWUnLCAnPG91dGZpbGUubWFlPic=

> <r_lp_tautomer_probability>
1

> <r_epik_Ionization_Penalty>
0.0210188

> <r_epik_Ionization_Penalty_Charging>
0.0210181

> <r_epik_Ionization_Penalty_Neutral>
6.5275e-07

> <r_epik_State_Penalty>
0.0168797

> <r_epik_Charging_Adjusted_Penalty>
0.0378979

> <i_epik_Tot_Q>
1

> <i_epik_Tot_abs_Q>
1

> <s_lp_Force_Field>
OPLS_2005

> <r_lp_Energy>
34.5702

> <b_lp_Chiralities_Consistent>
1

> <s_lp_Variant>
BACE_11.smi:1-1

$$$$
BACE_11.smi:1
                    3D
 Structure written by MMmdl.
 80 82  0  0  1  0            999 V2000
   -6.0896    1.2018   -2.6945 C   0  0  0  0  0  0
   -5.1687    0.1428   -2.0687 C   0  0  0  0  0  0
   -5.9613   -1.0767   -1.5718 C   0  0  0  0  0  0
   -4.2975    0.7355   -0.9682 C   0  0  0  0  0  0
   -2.8944    0.7730   -1.1213 C   0  0  0  0  0  0
   -2.0779    1.3174   -0.1080 C   0  0  0  0  0  0
   -0.5728    1.3475   -0.2814 C   0  0  0  0  0  0
    0.0179    0.0212   -0.1460 N   0  0  0  0  0  0
    1.4691    0.0172   -0.3022 C   0  0  0  0  0  0
    2.0339   -1.4170   -0.2141 C   0  0  1  0  0  0
    1.7197   -2.0520   -1.4392 O   0  0  0  0  0  0
    3.5727   -1.4781   -0.0117 C   0  0  2  0  0  0
    4.1766   -2.9080   -0.0227 C   0  0  0  0  0  0
    3.7344   -3.8408    1.0981 C   0  0  0  0  0  0
    4.6190   -4.1518    2.1533 C   0  0  0  0  0  0
    4.2310   -5.0428    3.1874 C   0  0  0  0  0  0
    2.9455   -5.6187    3.1386 C   0  0  0  0  0  0
    2.0663   -5.3306    2.0793 C   0  0  0  0  0  0
    2.4638   -4.4516    1.0567 C   0  0  0  0  0  0
    5.0262   -5.4094    4.2541 O   0  0  0  0  0  0
    6.3323   -4.8579    4.3923 C   0  0  0  0  0  0
    6.2950   -3.4005    4.8808 C   0  0  0  0  0  0
    5.5788   -3.2248    6.2292 C   0  0  0  0  0  0
    5.4671   -1.7647    6.7127 C   0  0  0  0  0  0
    4.4843   -0.8830    5.9033 C   0  0  0  0  0  0
    5.0674   -0.2112    4.6393 C   0  0  0  0  0  0
    6.2824   -0.2714    4.4530 O   0  0  0  0  0  0
    4.2263    0.4359    3.7873 N   0  0  0  0  0  0
    2.7697    0.3709    3.9841 C   0  0  0  0  0  0
    4.6767    1.1846    2.5839 C   0  0  1  0  0  0
    5.9640    2.0241    2.7667 C   0  0  0  0  0  0
    4.6015    0.4204    1.2459 C   0  0  0  0  0  0
    5.0930    0.9332    0.2402 O   0  0  0  0  0  0
    3.9470   -0.7566    1.2102 N   0  0  0  0  0  0
   -2.6673    1.8267    1.0670 C   0  0  0  0  0  0
   -4.0658    1.7935    1.2254 C   0  0  0  0  0  0
   -4.8782    1.2506    0.2117 C   0  0  0  0  0  0
    1.5382   -1.9409    0.6031 H   0  0  0  0  0  0
    4.0134   -0.9729   -0.8731 H   0  0  0  0  0  0
    3.9247    1.9630    2.4491 H   0  0  0  0  0  0
   -5.5114    2.0344   -3.0964 H   0  0  0  0  0  0
   -6.7929    1.6058   -1.9660 H   0  0  0  0  0  0
   -6.6704    0.7794   -3.5149 H   0  0  0  0  0  0
   -4.5061   -0.2102   -2.8601 H   0  0  0  0  0  0
   -5.2935   -1.8431   -1.1770 H   0  0  0  0  0  0
   -6.5348   -1.5268   -2.3827 H   0  0  0  0  0  0
   -6.6636   -0.8079   -0.7822 H   0  0  0  0  0  0
   -2.4374    0.3816   -2.0187 H   0  0  0  0  0  0
   -0.3463    1.7616   -1.2647 H   0  0  0  0  0  0
   -0.1393    2.0293    0.4514 H   0  0  0  0  0  0
   -0.3917   -0.6028   -0.8342 H   0  0  0  0  0  0
    1.7584    0.4775   -1.2480 H   0  0  0  0  0  0
    1.8945    0.6410    0.4827 H   0  0  0  0  0  0
    2.1451   -1.5800   -2.1388 H   0  0  0  0  0  0
    3.9550   -3.3970   -0.9719 H   0  0  0  0  0  0
    5.2642   -2.8266    0.0034 H   0  0  0  0  0  0
    5.5995   -3.7023    2.1413 H   0  0  0  0  0  0
    2.6342   -6.2999    3.9169 H   0  0  0  0  0  0
    1.0896   -5.7904    2.0468 H   0  0  0  0  0  0
    1.7881   -4.2533    0.2383 H   0  0  0  0  0  0
    6.8663   -5.4644    5.1241 H   0  0  0  0  0  0
    6.8973   -4.9520    3.4645 H   0  0  0  0  0  0
    7.3148   -3.0229    4.9610 H   0  0  0  0  0  0
    5.8061   -2.7906    4.1285 H   0  0  0  0  0  0
    4.5796   -3.6585    6.1767 H   0  0  0  0  0  0
    6.1150   -3.8017    6.9834 H   0  0  0  0  0  0
    5.1096   -1.7908    7.7425 H   0  0  0  0  0  0
    6.4566   -1.3099    6.7723 H   0  0  0  0  0  0
    3.6096   -1.4831    5.6542 H   0  0  0  0  0  0
    4.1327   -0.0797    6.5516 H   0  0  0  0  0  0
    2.4855    0.7865    4.9516 H   0  0  0  0  0  0
    2.4156   -0.6592    3.9281 H   0  0  0  0  0  0
    2.2140    0.9240    3.2262 H   0  0  0  0  0  0
    6.0525    2.7759    1.9817 H   0  0  0  0  0  0
    6.8672    1.4159    2.7168 H   0  0  0  0  0  0
    5.9600    2.5565    3.7183 H   0  0  0  0  0  0
    3.5859   -1.1217    2.0796 H   0  0  0  0  0  0
   -2.0502    2.2434    1.8495 H   0  0  0  0  0  0
   -4.5165    2.1841    2.1258 H   0  0  0  0  0  0
   -5.9498    1.2305    0.3455 H   0  0  0  0  0  0
  1  2  1  0  0  0
  1 41  1  0  0  0
  1 42  1  0  0  0
  1 43  1  0  0  0
  2  3  1  0  0  0
  2  4  1  0  0  0
  2 44  1  0  0  0
  3 45  1  0  0  0
  3 46  1  0  0  0
  3 47  1  0  0  0
  4 37  1  0  0  0
  4  5  2  0  0  0
  5  6  1  0  0  0
  5 48  1  0  0  0
  6  7  1  0  0  0
  6 35  2  0  0  0
  7  8  1  0  0  0
  7 49  1  0  0  0
  7 50  1  0  0  0
  8  9  1  0  0  0
  8 51  1  0  0  0
  9 10  1  0  0  0
  9 52  1  0  0  0
  9 53  1  0  0  0
 10 38  1  0  0  0
 10 11  1  0  0  0
 10 12  1  0  0  0
 11 54  1  0  0  0
 12 39  1  0  0  0
 12 34  1  0  0  0
 12 13  1  0  0  0
 13 14  1  0  0  0
 13 55  1  0  0  0
 13 56  1  0  0  0
 14 19  1  0  0  0
 14 15  2  0  0  0
 15 16  1  0  0  0
 15 57  1  0  0  0
 16 17  2  0  0  0
 16 20  1  0  0  0
 17 18  1  0  0  0
 17 58  1  0  0  0
 18 19  2  0  0  0
 18 59  1  0  0  0
 19 60  1  0  0  0
 20 21  1  0  0  0
 21 22  1  0  0  0
 21 61  1  0  0  0
 21 62  1  0  0  0
 22 23  1  0  0  0
 22 63  1  0  0  0
 22 64  1  0  0  0
 23 24  1  0  0  0
 23 65  1  0  0  0
 23 66  1  0  0  0
 24 25  1  0  0  0
 24 67  1  0  0  0
 24 68  1  0  0  0
 25 26  1  0  0  0
 25 69  1  0  0  0
 25 70  1  0  0  0
 26 27  2  0  0  0
 26 28  1  0  0  0
 28 29  1  0  0  0
 28 30  1  0  0  0
 29 71  1  0  0  0
 29 72  1  0  0  0
 29 73  1  0  0  0
 30 40  1  0  0  0
 30 31  1  0  0  0
 30 32  1  0  0  0
 31 74  1  0  0  0
 31 75  1  0  0  0
 31 76  1  0  0  0
 32 33  2  0  0  0
 32 34  1  0  0  0
 34 77  1  0  0  0
 35 36  1  0  0  0
 35 78  1  0  0  0
 36 37  2  0  0  0
 36 79  1  0  0  0
 37 80  1  0  0  0
M  END
> <s_m_source_file>
BACE_11.smi

> <i_m_source_file_index>
1

> <i_lp_mmshare_version>
42013

> <i_f3d_flags>
0

> <s_epik_input>
W0NIM11bQ0hdKFtDSDNdKWMxW2NIXWMoW2NIXVtjSF1bY0hdMSlbQ0gyXVtOSF1bQ0gyXVtDQEBIXShbT0hdKVtDQEhdKFtDSDJdMilbTkhdQyg9TylbQ0BIXShbQ0gzXSlOKFtDSDNdKUMoPU8pW0NIMl1bQ0gyXVtDSDJdW0NIMl1bQ0gyXU9jKFtjSF1jMjMpW2NIXVtjSF1bY0hdMw==

> <s_epik_cmdline>
J2VwaWtfcHl0aG9uJywgJy1waCcsICc3LjAnLCAnLXRuJywgJzgnLCAnLW1hJywgJzIwMCcsICctaW1hZScsICc8aW5maWxlLm1hZT4nLCAnLW9tYWUnLCAnPG91dGZpbGUubWFlPic=

> <r_lp_tautomer_probability>
1

> <r_epik_Ionization_Penalty>
1.98875

> <r_epik_Ionization_Penalty_Charging>
0

> <r_epik_Ionization_Penalty_Neutral>
1.98875

> <r_epik_State_Penalty>
2.11661

> <r_epik_Charging_Adjusted_Penalty>
2.11661

> <i_epik_Tot_Q>
0

> <i_epik_Tot_abs_Q>
0

> <s_lp_Force_Field>
OPLS_2005

> <r_lp_Energy>
43.4478

> <b_lp_Chiralities_Consistent>
1

> <s_lp_Variant>
BACE_11.smi:1-2

$$$$
