BACE_74.smi:1
                    3D
 Structure written by MMmdl.
 81 83  0  0  1  0            999 V2000
   -1.7177    2.8729    1.9154 C   0  0  0  0  0  0
   -2.4920    2.1955    0.7665 C   0  0  2  0  0  0
   -3.9985    2.1904    1.1250 C   0  0  0  0  0  0
   -4.9854    1.8708   -0.0114 C   0  0  0  0  0  0
   -5.0605    0.4744   -0.2562 O   0  0  0  0  0  0
   -6.2435    0.0997   -0.9545 C   0  0  0  0  0  0
   -6.1257   -1.3457   -1.4692 C   0  0  0  0  0  0
   -5.3297   -1.4850   -2.7806 C   0  0  0  0  0  0
   -3.9311   -0.8699   -2.6869 C   0  0  0  0  0  0
   -3.1325   -1.0717   -3.8856 N   0  0  0  0  0  0
   -1.7843   -0.6883   -3.8096 C   0  0  0  0  0  0
   -1.3733    0.3849   -2.9840 C   0  0  0  0  0  0
   -0.0114    0.7044   -2.8356 C   0  0  0  0  0  0
    0.9504    0.0061   -3.5941 C   0  0  0  0  0  0
    0.5510   -1.0396   -4.4476 C   0  0  0  0  0  0
   -0.8085   -1.3956   -4.5500 C   0  0  0  0  0  0
   -1.2536   -2.7107   -5.5808 Cl  0  0  0  0  0  0
    0.4126    1.8029   -1.9093 C   0  0  0  0  0  0
    1.0196    2.7697   -2.3634 O   0  0  0  0  0  0
    0.1556    1.7006   -0.5873 N   0  0  0  0  0  0
   -0.4157    0.6362    0.2618 C   0  0  1  0  0  0
   -1.9527    0.7745    0.4616 C   0  0  0  0  0  0
    0.0444   -0.8144   -0.0677 C   0  0  2  0  0  0
   -0.3670   -1.6663    0.9845 O   0  0  0  0  0  0
    1.5735   -0.9848   -0.1849 C   0  0  0  0  0  0
    1.9196   -2.3186   -0.7208 N   0  3  0  0  0  0
    3.3605   -2.5398   -0.9626 C   0  0  0  0  0  0
    4.1525   -2.5678    0.3315 C   0  0  0  0  0  0
    4.1473   -3.7168    1.1486 C   0  0  0  0  0  0
    4.8752   -3.7076    2.3618 C   0  0  0  0  0  0
    5.5843   -2.5239    2.6825 C   0  0  0  0  0  0
    5.5304   -1.4307    1.7954 C   0  0  0  0  0  0
    4.8302   -1.4428    0.6426 N   0  0  0  0  0  0
    4.8750   -4.9514    3.2683 C   0  0  0  0  0  0
    5.6662   -4.7374    4.5781 C   0  0  0  0  0  0
    5.5158   -6.1347    2.5154 C   0  0  0  0  0  0
    3.4254   -5.3163    3.6522 C   0  0  0  0  0  0
   -2.3619    2.8127   -0.1235 H   0  0  0  0  0  0
    0.0286    0.8506    1.2345 H   0  0  0  0  0  0
   -0.4423   -1.1689   -0.9747 H   0  0  0  0  0  0
   -1.7591    2.2746    2.8262 H   0  0  0  0  0  0
   -2.1321    3.8546    2.1466 H   0  0  0  0  0  0
   -0.6692    3.0332    1.6678 H   0  0  0  0  0  0
   -4.1845    1.5251    1.9693 H   0  0  0  0  0  0
   -4.2580    3.1877    1.4823 H   0  0  0  0  0  0
   -5.9695    2.2347    0.2897 H   0  0  0  0  0  0
   -4.7181    2.4008   -0.9267 H   0  0  0  0  0  0
   -7.0878    0.1785   -0.2681 H   0  0  0  0  0  0
   -6.4422    0.7767   -1.7874 H   0  0  0  0  0  0
   -5.6897   -1.9763   -0.6935 H   0  0  0  0  0  0
   -7.1286   -1.7370   -1.6432 H   0  0  0  0  0  0
   -5.2519   -2.5421   -3.0377 H   0  0  0  0  0  0
   -5.8804   -1.0102   -3.5937 H   0  0  0  0  0  0
   -4.0401    0.2015   -2.5257 H   0  0  0  0  0  0
   -3.4020   -1.2860   -1.8287 H   0  0  0  0  0  0
   -3.3454   -1.8877   -4.4423 H   0  0  0  0  0  0
   -2.0941    0.9777   -2.4448 H   0  0  0  0  0  0
    1.9981    0.2585   -3.5128 H   0  0  0  0  0  0
    1.2937   -1.5787   -5.0174 H   0  0  0  0  0  0
    0.4621    2.5034   -0.0565 H   0  0  0  0  0  0
   -2.2513    0.1247    1.2847 H   0  0  0  0  0  0
   -2.4691    0.3754   -0.4066 H   0  0  0  0  0  0
   -1.3059   -1.6002    1.0759 H   0  0  0  0  0  0
    2.0027   -0.2427   -0.8553 H   0  0  0  0  0  0
    2.0430   -0.8309    0.7876 H   0  0  0  0  0  0
    1.5884   -3.0189   -0.0725 H   0  0  0  0  0  0
    3.4837   -3.4961   -1.4719 H   0  0  0  0  0  0
    3.7463   -1.7736   -1.6372 H   0  0  0  0  0  0
    3.5876   -4.5891    0.8451 H   0  0  0  0  0  0
    6.1682   -2.4275    3.5846 H   0  0  0  0  0  0
    6.0636   -0.5190    2.0208 H   0  0  0  0  0  0
    5.6380   -5.6288    5.2060 H   0  0  0  0  0  0
    5.2534   -3.9182    5.1686 H   0  0  0  0  0  0
    6.7172   -4.5190    4.3847 H   0  0  0  0  0  0
    6.5409   -5.9059    2.2215 H   0  0  0  0  0  0
    4.9640   -6.3906    1.6106 H   0  0  0  0  0  0
    5.5459   -7.0305    3.1369 H   0  0  0  0  0  0
    3.3970   -6.1835    4.3130 H   0  0  0  0  0  0
    2.8172   -5.5614    2.7816 H   0  0  0  0  0  0
    2.9362   -4.4926    4.1734 H   0  0  0  0  0  0
    1.4338   -2.4368   -1.5982 H   0  0  0  0  0  0
  1  2  1  0  0  0
  1 41  1  0  0  0
  1 42  1  0  0  0
  1 43  1  0  0  0
  2 38  1  0  0  0
  2 22  1  0  0  0
  2  3  1  0  0  0
  3  4  1  0  0  0
  3 44  1  0  0  0
  3 45  1  0  0  0
  4  5  1  0  0  0
  4 46  1  0  0  0
  4 47  1  0  0  0
  5  6  1  0  0  0
  6  7  1  0  0  0
  6 48  1  0  0  0
  6 49  1  0  0  0
  7  8  1  0  0  0
  7 50  1  0  0  0
  7 51  1  0  0  0
  8  9  1  0  0  0
  8 52  1  0  0  0
  8 53  1  0  0  0
  9 10  1  0  0  0
  9 54  1  0  0  0
  9 55  1  0  0  0
 10 11  1  0  0  0
 10 56  1  0  0  0
 11 16  1  0  0  0
 11 12  2  0  0  0
 12 13  1  0  0  0
 12 57  1  0  0  0
 13 14  2  0  0  0
 13 18  1  0  0  0
 14 15  1  0  0  0
 14 58  1  0  0  0
 15 16  2  0  0  0
 15 59  1  0  0  0
 16 17  1  0  0  0
 18 19  2  0  0  0
 18 20  1  0  0  0
 20 21  1  0  0  0
 20 60  1  0  0  0
 21 39  1  0  0  0
 21 22  1  0  0  0
 21 23  1  0  0  0
 22 61  1  0  0  0
 22 62  1  0  0  0
 23 40  1  0  0  0
 23 24  1  0  0  0
 23 25  1  0  0  0
 24 63  1  0  0  0
 25 26  1  0  0  0
 25 64  1  0  0  0
 25 65  1  0  0  0
 26 27  1  0  0  0
 26 66  1  0  0  0
 26 81  1  0  0  0
 27 28  1  0  0  0
 27 67  1  0  0  0
 27 68  1  0  0  0
 28 33  1  0  0  0
 28 29  2  0  0  0
 29 30  1  0  0  0
 29 69  1  0  0  0
 30 31  2  0  0  0
 30 34  1  0  0  0
 31 32  1  0  0  0
 31 70  1  0  0  0
 32 33  2  0  0  0
 32 71  1  0  0  0
 34 35  1  0  0  0
 34 36  1  0  0  0
 34 37  1  0  0  0
 35 72  1  0  0  0
 35 73  1  0  0  0
 35 74  1  0  0  0
 36 75  1  0  0  0
 36 76  1  0  0  0
 36 77  1  0  0  0
 37 78  1  0  0  0
 37 79  1  0  0  0
 37 80  1  0  0  0
M  CHG  1  26   1
M  END
> <s_m_source_file>
BACE_74.smi

> <i_m_source_file_index>
1

> <i_lp_mmshare_version>
42013

> <i_f3d_flags>
0

> <s_epik_input>
W05IXTFbQ0gyXVtDSDJdW0NIMl1bQ0gyXU9bQ0gyXVtDSDJdW0NAQEhdKFtDSDNdKVtDSDJdW0NASF0oW05IXUMoPU8pYyhbY0hdYzEyKVtjSF1bY0hdYzJDbClbQ0BIXShbT0hdKVtDSDJdW05IXVtDSDJdYzNbY0hdYyhbY0hdW2NIXW4zKUMoW0NIM10pKFtDSDNdKVtDSDNd

> <s_epik_cmdline>
J2VwaWtfcHl0aG9uJywgJy1waCcsICc3LjAnLCAnLXRuJywgJzgnLCAnLW1hJywgJzIwMCcsICctaW1hZScsICc8aW5maWxlLm1hZT4nLCAnLW9tYWUnLCAnPG91dGZpbGUubWFlPic=

> <r_epik_Ionization_Penalty>
0.0334762

> <r_epik_Ionization_Penalty_Charging>
0.0332216

> <r_epik_Ionization_Penalty_Neutral>
0.000254639

> <r_epik_State_Penalty>
0.0275674

> <r_epik_Charging_Adjusted_Penalty>
0.0607889

> <i_epik_Tot_Q>
1

> <i_epik_Tot_abs_Q>
1

> <s_lp_Force_Field>
OPLS_2005

> <r_lp_Energy>
32.9586

> <b_lp_Chiralities_Consistent>
1

> <s_lp_Variant>
BACE_74.smi:1-1

$$$$
BACE_74.smi:1
                    3D
 Structure written by MMmdl.
 80 82  0  0  1  0            999 V2000
   -2.0830    4.0530    0.6733 C   0  0  0  0  0  0
   -2.7284    2.8860   -0.1017 C   0  0  2  0  0  0
   -4.2466    2.8725    0.2044 C   0  0  0  0  0  0
   -5.1391    2.0328   -0.7257 C   0  0  0  0  0  0
   -5.0991    0.6555   -0.3846 O   0  0  0  0  0  0
   -6.2064   -0.0716   -0.9067 C   0  0  0  0  0  0
   -5.9615   -1.5857   -0.7817 C   0  0  0  0  0  0
   -5.0740   -2.1745   -1.8942 C   0  0  0  0  0  0
   -3.7275   -1.4565   -2.0128 C   0  0  0  0  0  0
   -2.8442   -2.0562   -3.0003 N   0  0  0  0  0  0
   -1.5352   -1.5517   -3.0551 C   0  0  0  0  0  0
   -1.2543   -0.2013   -2.7384 C   0  0  0  0  0  0
    0.0684    0.2769   -2.7127 C   0  0  0  0  0  0
    1.1216   -0.5793   -3.0941 C   0  0  0  0  0  0
    0.8517   -1.9146   -3.4472 C   0  0  0  0  0  0
   -0.4685   -2.4062   -3.4190 C   0  0  0  0  0  0
   -0.7553   -4.0611   -3.8308 Cl  0  0  0  0  0  0
    0.3535    1.6975   -2.3316 C   0  0  0  0  0  0
    0.9082    2.4358   -3.1425 O   0  0  0  0  0  0
    0.0239    2.1417   -1.0997 N   0  0  0  0  0  0
   -0.4958    1.4826    0.1146 C   0  0  1  0  0  0
   -2.0484    1.5298    0.2193 C   0  0  0  0  0  0
    0.1121    0.0874    0.4438 C   0  0  2  0  0  0
   -0.2504   -0.2452    1.7702 O   0  0  0  0  0  0
    1.6550    0.0392    0.4004 C   0  0  0  0  0  0
    2.1303   -1.3327    0.2568 N   0  0  0  0  0  0
    3.5818   -1.4332    0.1564 C   0  0  0  0  0  0
    4.0487   -2.8725    0.0624 C   0  0  0  0  0  0
    3.6627   -3.6856   -1.0249 C   0  0  0  0  0  0
    4.1095   -5.0292   -1.0740 C   0  0  0  0  0  0
    4.9327   -5.4758   -0.0138 C   0  0  0  0  0  0
    5.2634   -4.5847    1.0250 C   0  0  0  0  0  0
    4.8334   -3.3078    1.0707 N   0  0  0  0  0  0
    3.7352   -5.9917   -2.2150 C   0  0  0  0  0  0
    5.0166   -6.4748   -2.9246 C   0  0  0  0  0  0
    2.8261   -5.3350   -3.2769 C   0  0  0  0  0  0
    2.9812   -7.2085   -1.6396 C   0  0  0  0  0  0
   -2.6032    3.0924   -1.1653 H   0  0  0  0  0  0
   -0.1247    2.1345    0.9063 H   0  0  0  0  0  0
   -0.3112   -0.6705   -0.2143 H   0  0  0  0  0  0
   -2.1225    3.8823    1.7496 H   0  0  0  0  0  0
   -2.5943    4.9944    0.4697 H   0  0  0  0  0  0
   -1.0406    4.2040    0.3964 H   0  0  0  0  0  0
   -4.4225    2.5842    1.2415 H   0  0  0  0  0  0
   -4.6097    3.8980    0.1265 H   0  0  0  0  0  0
   -6.1632    2.3962   -0.6214 H   0  0  0  0  0  0
   -4.8593    2.1711   -1.7709 H   0  0  0  0  0  0
   -7.0968    0.2048   -0.3404 H   0  0  0  0  0  0
   -6.3950    0.1904   -1.9495 H   0  0  0  0  0  0
   -5.5361   -1.8079    0.1975 H   0  0  0  0  0  0
   -6.9232   -2.0988   -0.8136 H   0  0  0  0  0  0
   -4.9108   -3.2343   -1.6944 H   0  0  0  0  0  0
   -5.5996   -2.1187   -2.8482 H   0  0  0  0  0  0
   -3.9173   -0.4249   -2.3047 H   0  0  0  0  0  0
   -3.2275   -1.4440   -1.0432 H   0  0  0  0  0  0
   -2.9504   -3.0482   -3.1589 H   0  0  0  0  0  0
   -2.0475    0.4913   -2.5083 H   0  0  0  0  0  0
    2.1411   -0.2212   -3.1032 H   0  0  0  0  0  0
    1.6642   -2.5664   -3.7306 H   0  0  0  0  0  0
    0.2380    3.1179   -0.9549 H   0  0  0  0  0  0
   -2.3315    1.2510    1.2346 H   0  0  0  0  0  0
   -2.4794    0.7560   -0.4094 H   0  0  0  0  0  0
   -1.1930   -0.2908    1.8204 H   0  0  0  0  0  0
    2.0323    0.6209   -0.4385 H   0  0  0  0  0  0
    2.0750    0.5020    1.2948 H   0  0  0  0  0  0
    1.8080   -1.8821    1.0474 H   0  0  0  0  0  0
    3.9355   -0.8981   -0.7258 H   0  0  0  0  0  0
    4.0500   -0.9565    1.0190 H   0  0  0  0  0  0
    3.0320   -3.2617   -1.7904 H   0  0  0  0  0  0
    5.3100   -6.4869    0.0129 H   0  0  0  0  0  0
    5.8908   -4.9076    1.8424 H   0  0  0  0  0  0
    4.7833   -7.1447   -3.7531 H   0  0  0  0  0  0
    5.6778   -7.0191   -2.2502 H   0  0  0  0  0  0
    5.5819   -5.6355   -3.3315 H   0  0  0  0  0  0
    3.3112   -4.4811   -3.7511 H   0  0  0  0  0  0
    1.8868   -4.9933   -2.8417 H   0  0  0  0  0  0
    2.5723   -6.0384   -4.0707 H   0  0  0  0  0  0
    2.6872   -7.9024   -2.4279 H   0  0  0  0  0  0
    2.0729   -6.9000   -1.1204 H   0  0  0  0  0  0
    3.5891   -7.7703   -0.9305 H   0  0  0  0  0  0
  1  2  1  0  0  0
  1 41  1  0  0  0
  1 42  1  0  0  0
  1 43  1  0  0  0
  2 38  1  0  0  0
  2 22  1  0  0  0
  2  3  1  0  0  0
  3  4  1  0  0  0
  3 44  1  0  0  0
  3 45  1  0  0  0
  4  5  1  0  0  0
  4 46  1  0  0  0
  4 47  1  0  0  0
  5  6  1  0  0  0
  6  7  1  0  0  0
  6 48  1  0  0  0
  6 49  1  0  0  0
  7  8  1  0  0  0
  7 50  1  0  0  0
  7 51  1  0  0  0
  8  9  1  0  0  0
  8 52  1  0  0  0
  8 53  1  0  0  0
  9 10  1  0  0  0
  9 54  1  0  0  0
  9 55  1  0  0  0
 10 11  1  0  0  0
 10 56  1  0  0  0
 11 16  1  0  0  0
 11 12  2  0  0  0
 12 13  1  0  0  0
 12 57  1  0  0  0
 13 14  2  0  0  0
 13 18  1  0  0  0
 14 15  1  0  0  0
 14 58  1  0  0  0
 15 16  2  0  0  0
 15 59  1  0  0  0
 16 17  1  0  0  0
 18 19  2  0  0  0
 18 20  1  0  0  0
 20 21  1  0  0  0
 20 60  1  0  0  0
 21 39  1  0  0  0
 21 22  1  0  0  0
 21 23  1  0  0  0
 22 61  1  0  0  0
 22 62  1  0  0  0
 23 40  1  0  0  0
 23 24  1  0  0  0
 23 25  1  0  0  0
 24 63  1  0  0  0
 25 26  1  0  0  0
 25 64  1  0  0  0
 25 65  1  0  0  0
 26 27  1  0  0  0
 26 66  1  0  0  0
 27 28  1  0  0  0
 27 67  1  0  0  0
 27 68  1  0  0  0
 28 33  1  0  0  0
 28 29  2  0  0  0
 29 30  1  0  0  0
 29 69  1  0  0  0
 30 31  2  0  0  0
 30 34  1  0  0  0
 31 32  1  0  0  0
 31 70  1  0  0  0
 32 33  2  0  0  0
 32 71  1  0  0  0
 34 35  1  0  0  0
 34 36  1  0  0  0
 34 37  1  0  0  0
 35 72  1  0  0  0
 35 73  1  0  0  0
 35 74  1  0  0  0
 36 75  1  0  0  0
 36 76  1  0  0  0
 36 77  1  0  0  0
 37 78  1  0  0  0
 37 79  1  0  0  0
 37 80  1  0  0  0
M  END
> <s_m_source_file>
BACE_74.smi

> <i_m_source_file_index>
1

> <i_lp_mmshare_version>
42013

> <i_f3d_flags>
0

> <s_epik_input>
W05IXTFbQ0gyXVtDSDJdW0NIMl1bQ0gyXU9bQ0gyXVtDSDJdW0NAQEhdKFtDSDNdKVtDSDJdW0NASF0oW05IXUMoPU8pYyhbY0hdYzEyKVtjSF1bY0hdYzJDbClbQ0BIXShbT0hdKVtDSDJdW05IXVtDSDJdYzNbY0hdYyhbY0hdW2NIXW4zKUMoW0NIM10pKFtDSDNdKVtDSDNd

> <s_epik_cmdline>
J2VwaWtfcHl0aG9uJywgJy1waCcsICc3LjAnLCAnLXRuJywgJzgnLCAnLW1hJywgJzIwMCcsICctaW1hZScsICc8aW5maWxlLm1hZT4nLCAnLW9tYWUnLCAnPG91dGZpbGUubWFlPic=

> <r_epik_Ionization_Penalty>
1.72528

> <r_epik_Ionization_Penalty_Charging>
0

> <r_epik_Ionization_Penalty_Neutral>
1.72528

> <r_epik_State_Penalty>
1.83129

> <r_epik_Charging_Adjusted_Penalty>
1.83129

> <i_epik_Tot_Q>
0

> <i_epik_Tot_abs_Q>
0

> <s_lp_Force_Field>
OPLS_2005

> <r_lp_Energy>
41.5136

> <b_lp_Chiralities_Consistent>
1

> <s_lp_Variant>
BACE_74.smi:1-2

$$$$
