BACE_95.smi:1
                    3D
 Structure written by MMmdl.
 71 74  0  0  1  0            999 V2000
   -2.9461   -0.0331   -3.2213 C   0  0  0  0  0  0
   -2.7451   -0.6377   -1.8217 C   0  0  2  0  0  0
   -3.6584   -1.8767   -1.6264 C   0  0  0  0  0  0
   -3.2811   -2.8938   -0.1139 S   0  0  0  0  0  0
   -3.8711   -4.2226   -0.3355 O   0  0  0  0  0  0
   -1.8472   -2.7852    0.1877 O   0  0  0  0  0  0
   -4.2612   -2.0842    1.2451 C   0  0  0  0  0  0
   -3.3917   -1.5227    2.3898 C   0  0  0  0  0  0
   -4.2388   -1.0532    3.5898 C   0  0  0  0  0  0
   -3.4426   -0.4503    4.7671 C   0  0  0  0  0  0
   -3.1625    0.9305    4.5481 O   0  0  0  0  0  0
   -1.8840    1.2187    4.1456 C   0  0  0  0  0  0
   -0.7634    0.9593    4.9633 C   0  0  0  0  0  0
    0.5336    1.2351    4.4867 C   0  0  0  0  0  0
    0.7173    1.7204    3.1766 C   0  0  0  0  0  0
   -0.3992    1.9567    2.3449 C   0  0  0  0  0  0
   -0.2083    2.2725    0.8616 C   0  0  0  0  0  0
   -0.6181    1.1049   -0.0944 C   0  0  2  0  0  0
   -2.0734    0.9548    0.0181 N   0  0  0  0  0  0
   -3.0352    0.4289   -0.7579 C   0  0  0  0  0  0
   -4.2029    0.7661   -0.5697 O   0  0  0  0  0  0
    0.2006   -0.2075    0.1272 C   0  0  2  0  0  0
   -0.0873   -0.7930    1.3818 O   0  0  0  0  0  0
    1.7188    0.0334    0.0514 C   0  0  0  0  0  0
    2.4581   -1.2130   -0.1406 N   0  0  0  0  0  0
    3.9116   -1.0618   -0.1270 C   0  0  0  0  0  0
    4.5796   -0.3517   -1.2844 C   0  0  0  0  0  0
    4.6974   -1.8530   -1.1473 C   0  0  0  0  0  0
    4.4456   -0.9308    1.2701 C   0  0  0  0  0  0
    4.6787   -2.0793    2.0572 C   0  0  0  0  0  0
    5.1537   -1.9574    3.3777 C   0  0  0  0  0  0
    5.3930   -0.6826    3.9252 C   0  0  0  0  0  0
    5.1579    0.4683    3.1495 C   0  0  0  0  0  0
    5.4628    2.1952    3.8876 Br  0  0  0  0  0  0
    4.6903    0.3429    1.8274 C   0  0  0  0  0  0
   -1.6969    1.7806    2.8718 C   0  0  0  0  0  0
   -1.7165   -0.9674   -1.7772 H   0  0  0  0  0  0
   -0.4238    1.4412   -1.1138 H   0  0  0  0  0  0
   -0.0402   -0.9414   -0.6336 H   0  0  0  0  0  0
   -2.3108    0.8413   -3.3695 H   0  0  0  0  0  0
   -3.9803    0.2744   -3.3827 H   0  0  0  0  0  0
   -2.6914   -0.7538   -3.9987 H   0  0  0  0  0  0
   -4.7166   -1.6135   -1.6134 H   0  0  0  0  0  0
   -3.5243   -2.5442   -2.4778 H   0  0  0  0  0  0
   -4.9015   -1.3145    0.8182 H   0  0  0  0  0  0
   -4.9291   -2.8479    1.6438 H   0  0  0  0  0  0
   -2.6932   -2.2892    2.7270 H   0  0  0  0  0  0
   -2.7877   -0.6984    2.0207 H   0  0  0  0  0  0
   -4.9914   -0.3365    3.2593 H   0  0  0  0  0  0
   -4.7927   -1.9152    3.9633 H   0  0  0  0  0  0
   -4.0566   -0.5001    5.6667 H   0  0  0  0  0  0
   -2.5533   -1.0468    4.9775 H   0  0  0  0  0  0
   -0.8968    0.5491    5.9537 H   0  0  0  0  0  0
    1.3914    1.0372    5.1124 H   0  0  0  0  0  0
    1.7198    1.8663    2.8021 H   0  0  0  0  0  0
   -0.7955    3.1616    0.6273 H   0  0  0  0  0  0
    0.8283    2.5597    0.6839 H   0  0  0  0  0  0
   -2.4492    1.5230    0.7632 H   0  0  0  0  0  0
    0.1480   -0.1796    2.0614 H   0  0  0  0  0  0
    1.9308    0.7016   -0.7838 H   0  0  0  0  0  0
    2.0626    0.5452    0.9486 H   0  0  0  0  0  0
    2.1523   -1.6977   -0.9781 H   0  0  0  0  0  0
    3.9567    0.0147   -2.0983 H   0  0  0  0  0  0
    5.4699    0.2388   -1.0770 H   0  0  0  0  0  0
    5.6675   -2.2486   -0.8527 H   0  0  0  0  0  0
    4.1486   -2.4544   -1.8696 H   0  0  0  0  0  0
    4.4881   -3.0607    1.6477 H   0  0  0  0  0  0
    5.3293   -2.8420    3.9722 H   0  0  0  0  0  0
    5.7527   -0.5887    4.9392 H   0  0  0  0  0  0
    4.5072    1.2313    1.2409 H   0  0  0  0  0  0
   -2.5688    1.9817    2.2687 H   0  0  0  0  0  0
  1  2  1  0  0  0
  1 40  1  0  0  0
  1 41  1  0  0  0
  1 42  1  0  0  0
  2 37  1  0  0  0
  2 20  1  0  0  0
  2  3  1  0  0  0
  3  4  1  0  0  0
  3 43  1  0  0  0
  3 44  1  0  0  0
  4  5  2  0  0  0
  4  6  2  0  0  0
  4  7  1  0  0  0
  7  8  1  0  0  0
  7 45  1  0  0  0
  7 46  1  0  0  0
  8  9  1  0  0  0
  8 47  1  0  0  0
  8 48  1  0  0  0
  9 10  1  0  0  0
  9 49  1  0  0  0
  9 50  1  0  0  0
 10 11  1  0  0  0
 10 51  1  0  0  0
 10 52  1  0  0  0
 11 12  1  0  0  0
 12 36  1  0  0  0
 12 13  2  0  0  0
 13 14  1  0  0  0
 13 53  1  0  0  0
 14 15  2  0  0  0
 14 54  1  0  0  0
 15 16  1  0  0  0
 15 55  1  0  0  0
 16 17  1  0  0  0
 16 36  2  0  0  0
 17 18  1  0  0  0
 17 56  1  0  0  0
 17 57  1  0  0  0
 18 38  1  0  0  0
 18 19  1  0  0  0
 18 22  1  0  0  0
 19 20  1  0  0  0
 19 58  1  0  0  0
 20 21  2  0  0  0
 22 39  1  0  0  0
 22 23  1  0  0  0
 22 24  1  0  0  0
 23 59  1  0  0  0
 24 25  1  0  0  0
 24 60  1  0  0  0
 24 61  1  0  0  0
 25 26  1  0  0  0
 25 62  1  0  0  0
 26 28  1  0  0  0
 26 27  1  0  0  0
 26 29  1  0  0  0
 27 28  1  0  0  0
 27 63  1  0  0  0
 27 64  1  0  0  0
 28 65  1  0  0  0
 28 66  1  0  0  0
 29 35  1  0  0  0
 29 30  2  0  0  0
 30 31  1  0  0  0
 30 67  1  0  0  0
 31 32  2  0  0  0
 31 68  1  0  0  0
 32 33  1  0  0  0
 32 69  1  0  0  0
 33 34  1  0  0  0
 33 35  2  0  0  0
 35 70  1  0  0  0
 36 71  1  0  0  0
M  END
> <s_m_source_file>
BACE_95.smi

> <i_m_source_file_index>
1

> <i_lp_mmshare_version>
42013

> <i_f3d_flags>
0

> <s_epik_input>
TzFbQ0gyXVtDSDJdW0NIMl1bQ0gyXVMoPU8pKD1PKVtDSDJdW0NAQEhdKFtDSDNdKUMoPU8pW05IXVtDQEBIXShbQ0gyXWMoW2NIXTIpW2NIXVtjSF1bY0hdYzEyKVtDQEhdKFtPSF0pW0NIMl1bTkhdQzMoW0NIMl1bQ0gyXTMpYzRbY0hdW2NIXVtjSF1jKEJyKVtjSF00

> <s_epik_cmdline>
J2VwaWtfcHl0aG9uJywgJy1waCcsICc3LjAnLCAnLXRuJywgJzgnLCAnLW1hJywgJzIwMCcsICctaW1hZScsICc8aW5maWxlLm1hZT4nLCAnLW9tYWUnLCAnPG91dGZpbGUubWFlPic=

> <r_lp_tautomer_probability>
1

> <r_epik_Ionization_Penalty>
0.256163

> <r_epik_Ionization_Penalty_Charging>
0

> <r_epik_Ionization_Penalty_Neutral>
0.256163

> <r_epik_State_Penalty>
0.247703

> <r_epik_Charging_Adjusted_Penalty>
0.247703

> <i_epik_Tot_Q>
0

> <i_epik_Tot_abs_Q>
0

> <s_lp_Force_Field>
OPLS_2005

> <r_lp_Energy>
51.0082

> <b_lp_Chiralities_Consistent>
1

> <s_lp_Variant>
BACE_95.smi:1-1

$$$$
BACE_95.smi:1
                    3D
 Structure written by MMmdl.
 72 75  0  0  1  0            999 V2000
   -2.8685    0.4739   -3.1171 C   0  0  0  0  0  0
   -2.7038   -0.2983   -1.7977 C   0  0  2  0  0  0
   -3.6660   -1.5145   -1.7537 C   0  0  0  0  0  0
   -3.3577   -2.7046   -0.3557 S   0  0  0  0  0  0
   -3.9866   -3.9789   -0.7333 O   0  0  0  0  0  0
   -1.9279   -2.6822   -0.0168 O   0  0  0  0  0  0
   -4.3394   -2.0122    1.0654 C   0  0  0  0  0  0
   -3.4777   -1.6231    2.2856 C   0  0  0  0  0  0
   -4.3350   -1.2351    3.5076 C   0  0  0  0  0  0
   -3.5440   -0.8010    4.7605 C   0  0  0  0  0  0
   -3.1916    0.5795    4.6978 O   0  0  0  0  0  0
   -1.8905    0.8435    4.3565 C   0  0  0  0  0  0
   -0.8059    0.4391    5.1633 C   0  0  0  0  0  0
    0.5150    0.6948    4.7446 C   0  0  0  0  0  0
    0.7564    1.3045    3.4973 C   0  0  0  0  0  0
   -0.3253    1.6886    2.6752 C   0  0  0  0  0  0
   -0.0816    2.1468    1.2378 C   0  0  0  0  0  0
   -0.5309    1.1095    0.1586 C   0  0  2  0  0  0
   -1.9930    1.0199    0.2335 N   0  0  0  0  0  0
   -2.9632    0.6455   -0.6165 C   0  0  0  0  0  0
   -4.1161    1.0180   -0.4063 O   0  0  0  0  0  0
    0.2147   -0.2611    0.2468 C   0  0  2  0  0  0
   -0.0754   -0.9534    1.4458 O   0  0  0  0  0  0
    1.7418   -0.1194    0.1258 C   0  0  0  0  0  0
    2.3892   -1.4361   -0.0556 N   0  3  0  0  0  0
    3.8661   -1.3965   -0.1092 C   0  0  0  0  0  0
    4.5036   -2.6389    0.4656 C   0  0  0  0  0  0
    4.5257   -1.3429    1.2499 C   0  0  0  0  0  0
    4.4270   -0.7109   -1.3196 C   0  0  0  0  0  0
    4.5701   -1.4148   -2.5343 C   0  0  0  0  0  0
    5.0834   -0.7708   -3.6769 C   0  0  0  0  0  0
    5.4580    0.5846   -3.6132 C   0  0  0  0  0  0
    5.3199    1.2937   -2.4050 C   0  0  0  0  0  0
    5.8174    3.1278   -2.3139 Br  0  0  0  0  0  0
    4.8085    0.6470   -1.2634 C   0  0  0  0  0  0
   -1.6431    1.5294    3.1560 C   0  0  0  0  0  0
   -1.6882   -0.6691   -1.7901 H   0  0  0  0  0  0
   -0.3040    1.5421   -0.8169 H   0  0  0  0  0  0
   -0.0894   -0.9098   -0.5660 H   0  0  0  0  0  0
   -2.1927    1.3289   -3.1619 H   0  0  0  0  0  0
   -3.8864    0.8456   -3.2426 H   0  0  0  0  0  0
   -2.6426   -0.1632   -3.9725 H   0  0  0  0  0  0
   -4.7135   -1.2119   -1.7269 H   0  0  0  0  0  0
   -3.5425   -2.0894   -2.6718 H   0  0  0  0  0  0
   -4.9357   -1.1715    0.7155 H   0  0  0  0  0  0
   -5.0494   -2.7854    1.3595 H   0  0  0  0  0  0
   -2.8322   -2.4591    2.5562 H   0  0  0  0  0  0
   -2.8186   -0.8003    2.0221 H   0  0  0  0  0  0
   -5.0405   -0.4488    3.2367 H   0  0  0  0  0  0
   -4.9432   -2.0996    3.7756 H   0  0  0  0  0  0
   -4.1846   -0.9152    5.6353 H   0  0  0  0  0  0
   -2.6905   -1.4605    4.9257 H   0  0  0  0  0  0
   -0.9849   -0.0661    6.1012 H   0  0  0  0  0  0
    1.3445    0.3872    5.3640 H   0  0  0  0  0  0
    1.7737    1.4340    3.1586 H   0  0  0  0  0  0
   -0.6147    3.0867    1.0878 H   0  0  0  0  0  0
    0.9726    2.3927    1.1096 H   0  0  0  0  0  0
   -2.3568    1.5140    1.0356 H   0  0  0  0  0  0
    0.0879   -0.3764    2.1772 H   0  0  0  0  0  0
    1.9785    0.5089   -0.7334 H   0  0  0  0  0  0
    2.1607    0.3684    1.0059 H   0  0  0  0  0  0
    2.1156   -2.0255    0.7179 H   0  0  0  0  0  0
    3.8582   -3.4295    0.8441 H   0  0  0  0  0  0
    5.4488   -2.9723    0.0418 H   0  0  0  0  0  0
    5.4838   -0.8335    1.3337 H   0  0  0  0  0  0
    3.8930   -1.2935    2.1344 H   0  0  0  0  0  0
    4.2834   -2.4547   -2.5938 H   0  0  0  0  0  0
    5.1888   -1.3165   -4.6031 H   0  0  0  0  0  0
    5.8499    1.0788   -4.4901 H   0  0  0  0  0  0
    4.7030    1.1994   -0.3411 H   0  0  0  0  0  0
   -2.4885    1.8414    2.5624 H   0  0  0  0  0  0
    2.0453   -1.8517   -0.9095 H   0  0  0  0  0  0
  1  2  1  0  0  0
  1 40  1  0  0  0
  1 41  1  0  0  0
  1 42  1  0  0  0
  2 37  1  0  0  0
  2 20  1  0  0  0
  2  3  1  0  0  0
  3  4  1  0  0  0
  3 43  1  0  0  0
  3 44  1  0  0  0
  4  5  2  0  0  0
  4  6  2  0  0  0
  4  7  1  0  0  0
  7  8  1  0  0  0
  7 45  1  0  0  0
  7 46  1  0  0  0
  8  9  1  0  0  0
  8 47  1  0  0  0
  8 48  1  0  0  0
  9 10  1  0  0  0
  9 49  1  0  0  0
  9 50  1  0  0  0
 10 11  1  0  0  0
 10 51  1  0  0  0
 10 52  1  0  0  0
 11 12  1  0  0  0
 12 36  1  0  0  0
 12 13  2  0  0  0
 13 14  1  0  0  0
 13 53  1  0  0  0
 14 15  2  0  0  0
 14 54  1  0  0  0
 15 16  1  0  0  0
 15 55  1  0  0  0
 16 17  1  0  0  0
 16 36  2  0  0  0
 17 18  1  0  0  0
 17 56  1  0  0  0
 17 57  1  0  0  0
 18 38  1  0  0  0
 18 19  1  0  0  0
 18 22  1  0  0  0
 19 20  1  0  0  0
 19 58  1  0  0  0
 20 21  2  0  0  0
 22 39  1  0  0  0
 22 23  1  0  0  0
 22 24  1  0  0  0
 23 59  1  0  0  0
 24 25  1  0  0  0
 24 60  1  0  0  0
 24 61  1  0  0  0
 25 26  1  0  0  0
 25 62  1  0  0  0
 25 72  1  0  0  0
 26 28  1  0  0  0
 26 27  1  0  0  0
 26 29  1  0  0  0
 27 28  1  0  0  0
 27 63  1  0  0  0
 27 64  1  0  0  0
 28 65  1  0  0  0
 28 66  1  0  0  0
 29 35  1  0  0  0
 29 30  2  0  0  0
 30 31  1  0  0  0
 30 67  1  0  0  0
 31 32  2  0  0  0
 31 68  1  0  0  0
 32 33  1  0  0  0
 32 69  1  0  0  0
 33 34  1  0  0  0
 33 35  2  0  0  0
 35 70  1  0  0  0
 36 71  1  0  0  0
M  CHG  1  25   1
M  END
> <s_m_source_file>
BACE_95.smi

> <i_m_source_file_index>
1

> <i_lp_mmshare_version>
42013

> <i_f3d_flags>
0

> <s_epik_input>
TzFbQ0gyXVtDSDJdW0NIMl1bQ0gyXVMoPU8pKD1PKVtDSDJdW0NAQEhdKFtDSDNdKUMoPU8pW05IXVtDQEBIXShbQ0gyXWMoW2NIXTIpW2NIXVtjSF1bY0hdYzEyKVtDQEhdKFtPSF0pW0NIMl1bTkhdQzMoW0NIMl1bQ0gyXTMpYzRbY0hdW2NIXVtjSF1jKEJyKVtjSF00

> <s_epik_cmdline>
J2VwaWtfcHl0aG9uJywgJy1waCcsICc3LjAnLCAnLXRuJywgJzgnLCAnLW1hJywgJzIwMCcsICctaW1hZScsICc8aW5maWxlLm1hZT4nLCAnLW9tYWUnLCAnPG91dGZpbGUubWFlPic=

> <r_lp_tautomer_probability>
1

> <r_epik_Ionization_Penalty>
0.620282

> <r_epik_Ionization_Penalty_Charging>
0.620282

> <r_epik_Ionization_Penalty_Neutral>
5.20663e-07

> <r_epik_State_Penalty>
0.636248

> <r_epik_Charging_Adjusted_Penalty>
1.25653

> <i_epik_Tot_Q>
1

> <i_epik_Tot_abs_Q>
1

> <s_lp_Force_Field>
OPLS_2005

> <r_lp_Energy>
45.6633

> <b_lp_Chiralities_Consistent>
1

> <s_lp_Variant>
BACE_95.smi:1-2

$$$$
