BACE_21.smi:1
                    3D
 Structure written by MMmdl.
 83 84  0  0  1  0            999 V2000
   -5.2316   -0.4743   -2.3618 C   0  0  0  0  0  0
   -5.3650    1.0301   -2.0775 C   0  0  0  0  0  0
   -5.2905    1.8599   -3.3687 C   0  0  0  0  0  0
   -4.3476    1.5009   -1.0455 C   0  0  0  0  0  0
   -2.9623    1.4162   -1.3084 C   0  0  0  0  0  0
   -2.0238    1.8510   -0.3492 C   0  0  0  0  0  0
   -0.5398    1.7457   -0.6364 C   0  0  0  0  0  0
   -0.0302    0.4223   -0.2317 N   0  3  0  0  0  0
    1.4106    0.2268   -0.4853 C   0  0  0  0  0  0
    1.8607   -1.1901   -0.0769 C   0  0  1  0  0  0
    1.2681   -2.1353   -0.9463 O   0  0  0  0  0  0
    3.3972   -1.4177   -0.0552 C   0  0  2  0  0  0
    4.0314   -0.8599    1.2418 C   0  0  0  0  0  0
    5.4479   -1.3947    1.5681 C   0  0  2  0  0  0
    5.6453   -1.4746    3.0942 C   0  0  0  0  0  0
    6.5616   -0.5515    0.9109 C   0  0  0  0  0  0
    7.9449   -1.2214    0.9356 C   0  0  0  0  0  0
    8.9836   -0.3564    0.2598 C   0  0  0  0  0  0
    9.6390   -0.6905   -0.8622 C   0  0  0  0  0  0
   10.6294    0.2158   -1.5594 C   0  0  0  0  0  0
   10.1305    0.6988   -2.9312 C   0  0  0  0  0  0
    8.8059    1.4884   -2.8820 C   0  0  0  0  0  0
    7.5599    0.6271   -3.1898 C   0  0  0  0  0  0
    6.2348    1.4094   -3.1692 C   0  0  0  0  0  0
    6.2910    2.6244   -2.9639 O   0  0  0  0  0  0
    5.0398    0.7821   -3.3652 N   0  0  0  0  0  0
    3.8318    1.6230   -3.2892 C   0  0  0  0  0  0
    4.7818   -0.6673   -3.5965 C   0  0  1  0  0  0
    5.7456   -1.4051   -4.5509 C   0  0  0  0  0  0
    4.3466   -1.4850   -2.3628 C   0  0  0  0  0  0
    4.2605   -2.7096   -2.4521 O   0  0  0  0  0  0
    4.0230   -0.8213   -1.2388 N   0  0  0  0  0  0
   -2.4726    2.3754    0.8804 C   0  0  0  0  0  0
   -3.8519    2.4635    1.1476 C   0  0  0  0  0  0
   -4.7861    2.0273    0.1886 C   0  0  0  0  0  0
    1.4640   -1.4135    0.9143 H   0  0  0  0  0  0
    3.5694   -2.4958   -0.0397 H   0  0  0  0  0  0
    5.5190   -2.4138    1.1860 H   0  0  0  0  0  0
    3.8696   -0.6751   -4.1942 H   0  0  0  0  0  0
   -5.3392   -1.0565   -1.4460 H   0  0  0  0  0  0
   -4.2641   -0.7183   -2.8012 H   0  0  0  0  0  0
   -6.0024   -0.8103   -3.0561 H   0  0  0  0  0  0
   -6.3591    1.1868   -1.6560 H   0  0  0  0  0  0
   -5.4453    2.9195   -3.1622 H   0  0  0  0  0  0
   -6.0590    1.5483   -4.0770 H   0  0  0  0  0  0
   -4.3245    1.7537   -3.8629 H   0  0  0  0  0  0
   -2.6173    1.0134   -2.2497 H   0  0  0  0  0  0
   -0.3610    1.9013   -1.7013 H   0  0  0  0  0  0
   -0.0024    2.5295   -0.1008 H   0  0  0  0  0  0
   -0.2069    0.2956    0.7544 H   0  0  0  0  0  0
    1.6160    0.4078   -1.5404 H   0  0  0  0  0  0
    1.9646    0.9740    0.0841 H   0  0  0  0  0  0
    1.5541   -3.0004   -0.6933 H   0  0  0  0  0  0
    4.0284    0.2310    1.2380 H   0  0  0  0  0  0
    3.3748   -1.1411    2.0659 H   0  0  0  0  0  0
    5.6085   -0.4852    3.5513 H   0  0  0  0  0  0
    6.5999   -1.9281    3.3578 H   0  0  0  0  0  0
    4.8715   -2.0846    3.5612 H   0  0  0  0  0  0
    6.3130   -0.3512   -0.1297 H   0  0  0  0  0  0
    6.6140    0.4250    1.3941 H   0  0  0  0  0  0
    8.2778   -1.3985    1.9574 H   0  0  0  0  0  0
    7.8986   -2.1930    0.4420 H   0  0  0  0  0  0
    9.1706    0.6039    0.7184 H   0  0  0  0  0  0
    9.4403   -1.6398   -1.3380 H   0  0  0  0  0  0
   10.8464    1.0764   -0.9250 H   0  0  0  0  0  0
   11.5681   -0.3263   -1.6764 H   0  0  0  0  0  0
   10.9016    1.3448   -3.3523 H   0  0  0  0  0  0
   10.0456   -0.1425   -3.6203 H   0  0  0  0  0  0
    8.7042    1.9900   -1.9184 H   0  0  0  0  0  0
    8.8633    2.2836   -3.6269 H   0  0  0  0  0  0
    7.7078    0.2224   -4.1885 H   0  0  0  0  0  0
    7.4877   -0.2058   -2.4915 H   0  0  0  0  0  0
    3.7622    2.1154   -2.3177 H   0  0  0  0  0  0
    2.9065    1.0633   -3.4227 H   0  0  0  0  0  0
    3.8501    2.3937   -4.0614 H   0  0  0  0  0  0
    5.2745   -2.3035   -4.9518 H   0  0  0  0  0  0
    6.6536   -1.7398   -4.0511 H   0  0  0  0  0  0
    6.0150   -0.7861   -5.4071 H   0  0  0  0  0  0
    4.1405    0.1815   -1.2360 H   0  0  0  0  0  0
   -1.7628    2.7113    1.6221 H   0  0  0  0  0  0
   -4.1951    2.8662    2.0893 H   0  0  0  0  0  0
   -5.8416    2.0998    0.4069 H   0  0  0  0  0  0
   -0.5390   -0.2851   -0.7429 H   0  0  0  0  0  0
  1  2  1  0  0  0
  1 40  1  0  0  0
  1 41  1  0  0  0
  1 42  1  0  0  0
  2  3  1  0  0  0
  2  4  1  0  0  0
  2 43  1  0  0  0
  3 44  1  0  0  0
  3 45  1  0  0  0
  3 46  1  0  0  0
  4 35  1  0  0  0
  4  5  2  0  0  0
  5  6  1  0  0  0
  5 47  1  0  0  0
  6  7  1  0  0  0
  6 33  2  0  0  0
  7  8  1  0  0  0
  7 48  1  0  0  0
  7 49  1  0  0  0
  8  9  1  0  0  0
  8 50  1  0  0  0
  8 83  1  0  0  0
  9 10  1  0  0  0
  9 51  1  0  0  0
  9 52  1  0  0  0
 10 36  1  0  0  0
 10 11  1  0  0  0
 10 12  1  0  0  0
 11 53  1  0  0  0
 12 37  1  0  0  0
 12 32  1  0  0  0
 12 13  1  0  0  0
 13 14  1  0  0  0
 13 54  1  0  0  0
 13 55  1  0  0  0
 14 38  1  0  0  0
 14 15  1  0  0  0
 14 16  1  0  0  0
 15 56  1  0  0  0
 15 57  1  0  0  0
 15 58  1  0  0  0
 16 17  1  0  0  0
 16 59  1  0  0  0
 16 60  1  0  0  0
 17 18  1  0  0  0
 17 61  1  0  0  0
 17 62  1  0  0  0
 18 19  2  0  0  0
 18 63  1  0  0  0
 19 20  1  0  0  0
 19 64  1  0  0  0
 20 21  1  0  0  0
 20 65  1  0  0  0
 20 66  1  0  0  0
 21 22  1  0  0  0
 21 67  1  0  0  0
 21 68  1  0  0  0
 22 23  1  0  0  0
 22 69  1  0  0  0
 22 70  1  0  0  0
 23 24  1  0  0  0
 23 71  1  0  0  0
 23 72  1  0  0  0
 24 25  2  0  0  0
 24 26  1  0  0  0
 26 27  1  0  0  0
 26 28  1  0  0  0
 27 73  1  0  0  0
 27 74  1  0  0  0
 27 75  1  0  0  0
 28 39  1  0  0  0
 28 29  1  0  0  0
 28 30  1  0  0  0
 29 76  1  0  0  0
 29 77  1  0  0  0
 29 78  1  0  0  0
 30 31  2  0  0  0
 30 32  1  0  0  0
 32 79  1  0  0  0
 33 34  1  0  0  0
 33 80  1  0  0  0
 34 35  2  0  0  0
 34 81  1  0  0  0
 35 82  1  0  0  0
M  CHG  1   8   1
M  END
> <s_m_source_file>
BACE_21.smi

> <i_m_source_file_index>
1

> <i_lp_mmshare_version>
42013

> <i_f3d_flags>
0

> <s_epik_input>
W0NIM11bQ0hdKFtDSDNdKWMxW2NIXWMoW2NIXVtjSF1bY0hdMSlbQ0gyXVtOSF1bQ0gyXVtDQEBIXShbT0hdKVtDQEBIXTJbQ0gyXVtDQEhdKFtDSDNdKVtDSDJdW0NIMl0vW0NIXT1bQ0hdL1tDSDJdW0NIMl1bQ0gyXVtDSDJdQyg9TylOKFtDSDNdKVtDQEBIXShbQ0gzXSlDKD1PKVtOSF0y

> <s_epik_cmdline>
J2VwaWtfcHl0aG9uJywgJy1waCcsICc3LjAnLCAnLXRuJywgJzgnLCAnLW1hJywgJzIwMCcsICctaW1hZScsICc8aW5maWxlLm1hZT4nLCAnLW9tYWUnLCAnPG91dGZpbGUubWFlPic=

> <r_epik_Ionization_Penalty>
0.0182263

> <r_epik_Ionization_Penalty_Charging>
0.018226

> <r_epik_Ionization_Penalty_Neutral>
2.99171e-07

> <r_epik_State_Penalty>
0.0144907

> <r_epik_Charging_Adjusted_Penalty>
0.0327167

> <i_epik_Tot_Q>
1

> <i_epik_Tot_abs_Q>
1

> <s_lp_Force_Field>
OPLS_2005

> <r_lp_Energy>
31.9362

> <b_lp_Chiralities_Consistent>
1

> <s_lp_Variant>
BACE_21.smi:1-1

$$$$
BACE_21.smi:1
                    3D
 Structure written by MMmdl.
 82 83  0  0  1  0            999 V2000
   -4.4871    2.8439    3.3493 C   0  0  0  0  0  0
   -4.7503    1.4311    2.8046 C   0  0  0  0  0  0
   -4.2371    0.3476    3.7662 C   0  0  0  0  0  0
   -4.1800    1.2542    1.4031 C   0  0  0  0  0  0
   -2.7912    1.3690    1.1711 C   0  0  0  0  0  0
   -2.2680    1.2099   -0.1286 C   0  0  0  0  0  0
   -0.7777    1.3335   -0.3696 C   0  0  0  0  0  0
   -0.1291    0.0300   -0.4522 N   0  0  0  0  0  0
    1.2986    0.1194   -0.7430 C   0  0  0  0  0  0
    1.9535   -1.2752   -0.7739 C   0  0  1  0  0  0
    1.6993   -1.8436   -2.0447 O   0  0  0  0  0  0
    3.4836   -1.2269   -0.5272 C   0  0  2  0  0  0
    4.2874   -0.5606   -1.6728 C   0  0  0  0  0  0
    5.7069   -0.0774   -1.2881 C   0  0  2  0  0  0
    6.0968    1.1464   -2.1391 C   0  0  0  0  0  0
    6.7630   -1.1959   -1.4141 C   0  0  0  0  0  0
    8.0968   -0.8730   -0.7225 C   0  0  0  0  0  0
    9.0816   -2.0079   -0.8837 C   0  0  0  0  0  0
    9.5480   -2.7609    0.1240 C   0  0  0  0  0  0
   10.4865   -3.9322   -0.0664 C   0  0  0  0  0  0
    9.8383   -5.2803    0.2890 C   0  0  0  0  0  0
    8.5871   -5.6218   -0.5467 C   0  0  0  0  0  0
    7.2560   -5.2870    0.1644 C   0  0  0  0  0  0
    6.0014   -5.6351   -0.6574 C   0  0  0  0  0  0
    6.1658   -6.2072   -1.7379 O   0  0  0  0  0  0
    4.7536   -5.3147   -0.2108 N   0  0  0  0  0  0
    3.6264   -5.6199   -1.1098 C   0  0  0  0  0  0
    4.3737   -4.6441    1.0640 C   0  0  1  0  0  0
    5.1225   -5.0948    2.3369 C   0  0  0  0  0  0
    4.1006   -3.1283    0.9761 C   0  0  0  0  0  0
    3.9764   -2.4753    2.0123 O   0  0  0  0  0  0
    3.9571   -2.5824   -0.2442 N   0  0  0  0  0  0
   -3.1362    0.9279   -1.2028 C   0  0  0  0  0  0
   -4.5208    0.8105   -0.9778 C   0  0  0  0  0  0
   -5.0411    0.9734    0.3203 C   0  0  0  0  0  0
    1.4911   -1.9022   -0.0092 H   0  0  0  0  0  0
    3.6352   -0.6158    0.3641 H   0  0  0  0  0  0
    5.6791    0.2542   -0.2493 H   0  0  0  0  0  0
    3.3760   -5.0339    1.2704 H   0  0  0  0  0  0
   -4.8988    3.6031    2.6835 H   0  0  0  0  0  0
   -3.4206    3.0418    3.4605 H   0  0  0  0  0  0
   -4.9500    2.9791    4.3271 H   0  0  0  0  0  0
   -5.8326    1.3120    2.7382 H   0  0  0  0  0  0
   -4.4733   -0.6497    3.3944 H   0  0  0  0  0  0
   -4.6963    0.4489    4.7497 H   0  0  0  0  0  0
   -3.1566    0.4063    3.8993 H   0  0  0  0  0  0
   -2.1231    1.5810    1.9930 H   0  0  0  0  0  0
   -0.6224    1.8909   -1.2941 H   0  0  0  0  0  0
   -0.3325    1.9266    0.4301 H   0  0  0  0  0  0
   -0.2584   -0.4642    0.4250 H   0  0  0  0  0  0
    1.4667    0.6478   -1.6823 H   0  0  0  0  0  0
    1.7747    0.7180    0.0345 H   0  0  0  0  0  0
    0.7636   -1.8649   -2.1774 H   0  0  0  0  0  0
    4.3344   -1.2156   -2.5439 H   0  0  0  0  0  0
    3.7205    0.3091   -2.0037 H   0  0  0  0  0  0
    6.1571    0.8897   -3.1970 H   0  0  0  0  0  0
    7.0594    1.5600   -1.8411 H   0  0  0  0  0  0
    5.3659    1.9487   -2.0340 H   0  0  0  0  0  0
    6.3846   -2.1184   -0.9777 H   0  0  0  0  0  0
    6.9346   -1.4186   -2.4682 H   0  0  0  0  0  0
    8.5521    0.0230   -1.1428 H   0  0  0  0  0  0
    7.9303   -0.6782    0.3379 H   0  0  0  0  0  0
    9.3918   -2.2233   -1.8961 H   0  0  0  0  0  0
    9.2248   -2.5643    1.1360 H   0  0  0  0  0  0
   10.8364   -3.9554   -1.0995 H   0  0  0  0  0  0
   11.3682   -3.7699    0.5540 H   0  0  0  0  0  0
   10.5855   -6.0571    0.1232 H   0  0  0  0  0  0
    9.6074   -5.3205    1.3543 H   0  0  0  0  0  0
    8.6419   -5.1314   -1.5201 H   0  0  0  0  0  0
    8.6043   -6.6933   -0.7524 H   0  0  0  0  0  0
    7.2424   -5.8712    1.0821 H   0  0  0  0  0  0
    7.2212   -4.2312    0.4313 H   0  0  0  0  0  0
    3.7873   -5.1914   -2.1008 H   0  0  0  0  0  0
    2.6746   -5.2219   -0.7566 H   0  0  0  0  0  0
    3.5066   -6.6987   -1.2200 H   0  0  0  0  0  0
    4.5343   -4.8691    3.2272 H   0  0  0  0  0  0
    6.0737   -4.5796    2.4656 H   0  0  0  0  0  0
    5.2950   -6.1714    2.3411 H   0  0  0  0  0  0
    4.0832   -3.1862   -1.0438 H   0  0  0  0  0  0
   -2.7416    0.8012   -2.2004 H   0  0  0  0  0  0
   -5.1851    0.5951   -1.8016 H   0  0  0  0  0  0
   -6.1055    0.8811    0.4791 H   0  0  0  0  0  0
  1  2  1  0  0  0
  1 40  1  0  0  0
  1 41  1  0  0  0
  1 42  1  0  0  0
  2  3  1  0  0  0
  2  4  1  0  0  0
  2 43  1  0  0  0
  3 44  1  0  0  0
  3 45  1  0  0  0
  3 46  1  0  0  0
  4 35  1  0  0  0
  4  5  2  0  0  0
  5  6  1  0  0  0
  5 47  1  0  0  0
  6  7  1  0  0  0
  6 33  2  0  0  0
  7  8  1  0  0  0
  7 48  1  0  0  0
  7 49  1  0  0  0
  8  9  1  0  0  0
  8 50  1  0  0  0
  9 10  1  0  0  0
  9 51  1  0  0  0
  9 52  1  0  0  0
 10 36  1  0  0  0
 10 11  1  0  0  0
 10 12  1  0  0  0
 11 53  1  0  0  0
 12 37  1  0  0  0
 12 32  1  0  0  0
 12 13  1  0  0  0
 13 14  1  0  0  0
 13 54  1  0  0  0
 13 55  1  0  0  0
 14 38  1  0  0  0
 14 15  1  0  0  0
 14 16  1  0  0  0
 15 56  1  0  0  0
 15 57  1  0  0  0
 15 58  1  0  0  0
 16 17  1  0  0  0
 16 59  1  0  0  0
 16 60  1  0  0  0
 17 18  1  0  0  0
 17 61  1  0  0  0
 17 62  1  0  0  0
 18 19  2  0  0  0
 18 63  1  0  0  0
 19 20  1  0  0  0
 19 64  1  0  0  0
 20 21  1  0  0  0
 20 65  1  0  0  0
 20 66  1  0  0  0
 21 22  1  0  0  0
 21 67  1  0  0  0
 21 68  1  0  0  0
 22 23  1  0  0  0
 22 69  1  0  0  0
 22 70  1  0  0  0
 23 24  1  0  0  0
 23 71  1  0  0  0
 23 72  1  0  0  0
 24 25  2  0  0  0
 24 26  1  0  0  0
 26 27  1  0  0  0
 26 28  1  0  0  0
 27 73  1  0  0  0
 27 74  1  0  0  0
 27 75  1  0  0  0
 28 39  1  0  0  0
 28 29  1  0  0  0
 28 30  1  0  0  0
 29 76  1  0  0  0
 29 77  1  0  0  0
 29 78  1  0  0  0
 30 31  2  0  0  0
 30 32  1  0  0  0
 32 79  1  0  0  0
 33 34  1  0  0  0
 33 80  1  0  0  0
 34 35  2  0  0  0
 34 81  1  0  0  0
 35 82  1  0  0  0
M  END
> <s_m_source_file>
BACE_21.smi

> <i_m_source_file_index>
1

> <i_lp_mmshare_version>
42013

> <i_f3d_flags>
0

> <s_epik_input>
W0NIM11bQ0hdKFtDSDNdKWMxW2NIXWMoW2NIXVtjSF1bY0hdMSlbQ0gyXVtOSF1bQ0gyXVtDQEBIXShbT0hdKVtDQEBIXTJbQ0gyXVtDQEhdKFtDSDNdKVtDSDJdW0NIMl0vW0NIXT1bQ0hdL1tDSDJdW0NIMl1bQ0gyXVtDSDJdQyg9TylOKFtDSDNdKVtDQEBIXShbQ0gzXSlDKD1PKVtOSF0y

> <s_epik_cmdline>
J2VwaWtfcHl0aG9uJywgJy1waCcsICc3LjAnLCAnLXRuJywgJzgnLCAnLW1hJywgJzIwMCcsICctaW1hZScsICc8aW5maWxlLm1hZT4nLCAnLW9tYWUnLCAnPG91dGZpbGUubWFlPic=

> <r_epik_Ionization_Penalty>
2.07182

> <r_epik_Ionization_Penalty_Charging>
0

> <r_epik_Ionization_Penalty_Neutral>
2.07182

> <r_epik_State_Penalty>
2.20584

> <r_epik_Charging_Adjusted_Penalty>
2.20584

> <i_epik_Tot_Q>
0

> <i_epik_Tot_abs_Q>
0

> <s_lp_Force_Field>
OPLS_2005

> <r_lp_Energy>
40.4832

> <b_lp_Chiralities_Consistent>
1

> <s_lp_Variant>
BACE_21.smi:1-2

$$$$
