BACE_144.smi:1
                    3D
 Structure written by MMmdl.
 88 92  0  0  1  0            999 V2000
   -6.0047    5.0574    3.9126 C   0  0  0  0  0  0
   -4.9524    5.9966    3.7529 O   0  0  0  0  0  0
   -3.8420    5.7599    4.6075 C   0  0  0  0  0  0
   -3.0562    4.5180    4.2263 C   0  0  0  0  0  0
   -2.8372    3.4955    5.1714 C   0  0  0  0  0  0
   -2.1335    2.3289    4.8121 C   0  0  0  0  0  0
   -1.6373    2.2002    3.4941 C   0  0  0  0  0  0
   -1.8325    3.2297    2.5434 C   0  0  0  0  0  0
   -2.5413    4.3897    2.9210 C   0  0  0  0  0  0
   -1.2894    3.1169    1.1643 C   0  0  0  0  0  0
   -1.0478    4.0846    0.4412 O   0  0  0  0  0  0
   -1.1189    1.8324    0.7917 O   0  0  0  0  0  0
   -0.5075    1.4780   -0.4448 C   0  0  1  0  0  0
   -0.0000    0.0335   -0.2857 C   0  0  0  0  0  0
    1.0276   -0.0333    0.7445 N   0  0  0  0  0  0
    1.4763   -1.4039    0.9379 C   0  0  0  0  0  0
    2.9485   -1.6006    1.2245 C   0  0  0  0  0  0
    2.3808   -2.0236   -0.1081 C   0  0  0  0  0  0
    0.4740   -2.2383    1.6837 C   0  0  0  0  0  0
   -0.3947   -3.1037    0.9851 C   0  0  0  0  0  0
   -1.3602   -3.8718    1.6700 C   0  0  0  0  0  0
   -1.4400   -3.7844    3.0752 C   0  0  0  0  0  0
   -0.5766   -2.9263    3.7816 C   0  0  0  0  0  0
    0.3715   -2.1514    3.0878 C   0  0  0  0  0  0
   -2.3062   -4.7882    0.9049 C   0  0  0  0  0  0
   -1.5510   -5.9616    0.2625 C   0  0  0  0  0  0
   -3.1391   -4.0163   -0.1320 C   0  0  0  0  0  0
   -1.4621    1.6547   -1.6604 C   0  0  1  0  0  0
   -0.7029    1.4713   -2.9111 N   0  3  0  0  0  0
   -2.7150    0.7459   -1.6694 C   0  0  0  0  0  0
   -3.6929    1.0493   -0.5478 C   0  0  0  0  0  0
   -3.8449    0.1609    0.5393 C   0  0  0  0  0  0
   -4.7365    0.4719    1.5961 C   0  0  0  0  0  0
   -5.4832    1.6655    1.5349 C   0  0  0  0  0  0
   -5.3385    2.5496    0.4511 C   0  0  0  0  0  0
   -4.4448    2.2414   -0.5893 C   0  0  0  0  0  0
   -4.9376   -0.3234    2.7006 O   0  0  0  0  0  0
   -3.9756   -1.3224    3.0115 C   0  0  0  0  0  0
   -4.0619   -1.5963    4.5218 C   0  0  0  0  0  0
   -3.7046   -0.3628    5.3683 C   0  0  0  0  0  0
   -2.1996   -0.0433    5.3808 C   0  0  0  0  0  0
   -1.9429    1.3335    5.7828 N   0  0  0  0  0  0
    0.3588    2.1253   -0.5941 H   0  0  0  0  0  0
   -1.7986    2.6909   -1.6912 H   0  0  0  0  0  0
   -6.8291    5.3174    3.2489 H   0  0  0  0  0  0
   -6.3836    5.0599    4.9352 H   0  0  0  0  0  0
   -5.6839    4.0458    3.6619 H   0  0  0  0  0  0
   -3.1723    6.6171    4.5349 H   0  0  0  0  0  0
   -4.1690    5.7114    5.6475 H   0  0  0  0  0  0
   -3.2254    3.6002    6.1743 H   0  0  0  0  0  0
   -1.0720    1.3225    3.2194 H   0  0  0  0  0  0
   -2.7074    5.1844    2.2077 H   0  0  0  0  0  0
   -0.8328   -0.6182   -0.0240 H   0  0  0  0  0  0
    0.4162   -0.3310   -1.2250 H   0  0  0  0  0  0
    0.6280    0.3119    1.6061 H   0  0  0  0  0  0
    3.5963   -0.7259    1.2241 H   0  0  0  0  0  0
    3.2348   -2.3921    1.9146 H   0  0  0  0  0  0
    2.2909   -3.0920   -0.2944 H   0  0  0  0  0  0
    2.6661   -1.4230   -0.9694 H   0  0  0  0  0  0
   -0.3232   -3.1680   -0.0906 H   0  0  0  0  0  0
   -2.1689   -4.3685    3.6177 H   0  0  0  0  0  0
   -0.6473   -2.8561    4.8569 H   0  0  0  0  0  0
    1.0241   -1.4888    3.6372 H   0  0  0  0  0  0
   -3.0084   -5.2122    1.6238 H   0  0  0  0  0  0
   -1.0115   -6.5387    1.0140 H   0  0  0  0  0  0
   -0.8268   -5.6176   -0.4765 H   0  0  0  0  0  0
   -2.2394   -6.6408   -0.2412 H   0  0  0  0  0  0
   -3.7100   -3.2160    0.3381 H   0  0  0  0  0  0
   -3.8511   -4.6758   -0.6287 H   0  0  0  0  0  0
   -2.5134   -3.5684   -0.9043 H   0  0  0  0  0  0
   -0.3583    0.5234   -2.9633 H   0  0  0  0  0  0
    0.0766    2.1137   -2.9286 H   0  0  0  0  0  0
   -3.2530    0.8793   -2.6091 H   0  0  0  0  0  0
   -2.4335   -0.3072   -1.6408 H   0  0  0  0  0  0
   -3.2675   -0.7513    0.5514 H   0  0  0  0  0  0
   -6.1682    1.9099    2.3335 H   0  0  0  0  0  0
   -5.9111    3.4649    0.4206 H   0  0  0  0  0  0
   -4.3336    2.9265   -1.4169 H   0  0  0  0  0  0
   -4.2002   -2.2288    2.4495 H   0  0  0  0  0  0
   -2.9626   -1.0140    2.7519 H   0  0  0  0  0  0
   -5.0776   -1.9127    4.7616 H   0  0  0  0  0  0
   -3.4142   -2.4299    4.7927 H   0  0  0  0  0  0
   -4.2733    0.4934    5.0032 H   0  0  0  0  0  0
   -4.0369   -0.5171    6.3952 H   0  0  0  0  0  0
   -1.6953   -0.7068    6.0836 H   0  0  0  0  0  0
   -1.7472   -0.2518    4.4147 H   0  0  0  0  0  0
   -2.2745    1.5683    6.7075 H   0  0  0  0  0  0
   -1.3052    1.6540   -3.7012 H   0  0  0  0  0  0
  1  2  1  0  0  0
  1 45  1  0  0  0
  1 46  1  0  0  0
  1 47  1  0  0  0
  2  3  1  0  0  0
  3  4  1  0  0  0
  3 48  1  0  0  0
  3 49  1  0  0  0
  4  9  1  0  0  0
  4  5  2  0  0  0
  5  6  1  0  0  0
  5 50  1  0  0  0
  6 42  1  0  0  0
  6  7  2  0  0  0
  7  8  1  0  0  0
  7 51  1  0  0  0
  8  9  2  0  0  0
  8 10  1  0  0  0
  9 52  1  0  0  0
 10 11  2  0  0  0
 10 12  1  0  0  0
 12 13  1  0  0  0
 13 43  1  0  0  0
 13 14  1  0  0  0
 13 28  1  0  0  0
 14 15  1  0  0  0
 14 53  1  0  0  0
 14 54  1  0  0  0
 15 16  1  0  0  0
 15 55  1  0  0  0
 16 18  1  0  0  0
 16 17  1  0  0  0
 16 19  1  0  0  0
 17 18  1  0  0  0
 17 56  1  0  0  0
 17 57  1  0  0  0
 18 58  1  0  0  0
 18 59  1  0  0  0
 19 24  1  0  0  0
 19 20  2  0  0  0
 20 21  1  0  0  0
 20 60  1  0  0  0
 21 22  2  0  0  0
 21 25  1  0  0  0
 22 23  1  0  0  0
 22 61  1  0  0  0
 23 24  2  0  0  0
 23 62  1  0  0  0
 24 63  1  0  0  0
 25 26  1  0  0  0
 25 27  1  0  0  0
 25 64  1  0  0  0
 26 65  1  0  0  0
 26 66  1  0  0  0
 26 67  1  0  0  0
 27 68  1  0  0  0
 27 69  1  0  0  0
 27 70  1  0  0  0
 28 44  1  0  0  0
 28 29  1  0  0  0
 28 30  1  0  0  0
 29 71  1  0  0  0
 29 72  1  0  0  0
 29 88  1  0  0  0
 30 31  1  0  0  0
 30 73  1  0  0  0
 30 74  1  0  0  0
 31 36  1  0  0  0
 31 32  2  0  0  0
 32 33  1  0  0  0
 32 75  1  0  0  0
 33 34  2  0  0  0
 33 37  1  0  0  0
 34 35  1  0  0  0
 34 76  1  0  0  0
 35 36  2  0  0  0
 35 77  1  0  0  0
 36 78  1  0  0  0
 37 38  1  0  0  0
 38 39  1  0  0  0
 38 79  1  0  0  0
 38 80  1  0  0  0
 39 40  1  0  0  0
 39 81  1  0  0  0
 39 82  1  0  0  0
 40 41  1  0  0  0
 40 83  1  0  0  0
 40 84  1  0  0  0
 41 42  1  0  0  0
 41 85  1  0  0  0
 41 86  1  0  0  0
 42 87  1  0  0  0
M  CHG  1  29   1
M  END
> <s_m_source_file>
BACE_144.smi

> <i_m_source_file_index>
1

> <i_lp_mmshare_version>
42013

> <i_f3d_flags>
0

> <s_epik_input>
W2NIXTFbY0hdW2NIXWMoW0NIXShbQ0gzXSlbQ0gzXSlbY0hdYzFDMihbQ0gyXVtDSDJdMilbTkhdW0NIMl1bQ0BIXShPQyg9TyljKFtjSF0zKVtjSF1jKFtjSF1jMzQpW0NIMl1PW0NIM10pW0NAQEhdKFtOSDJdKVtDSDJdYzVbY0hdYyhbY0hdW2NIXVtjSF01KU9bQ0gyXVtDSDJdW0NIMl1bQ0gyXVtOSF00

> <s_epik_cmdline>
J2VwaWtfcHl0aG9uJywgJy1waCcsICc3LjAnLCAnLXRuJywgJzgnLCAnLW1hJywgJzIwMCcsICctaW1hZScsICc8aW5maWxlLm1hZT4nLCAnLW9tYWUnLCAnPG91dGZpbGUubWFlPic=

> <r_lp_tautomer_probability>
1

> <r_epik_Ionization_Penalty>
0.044966

> <r_epik_Ionization_Penalty_Charging>
0.0151014

> <r_epik_Ionization_Penalty_Neutral>
0.0298647

> <r_epik_State_Penalty>
0.035731

> <r_epik_Charging_Adjusted_Penalty>
0.0508324

> <i_epik_Tot_Q>
1

> <i_epik_Tot_abs_Q>
1

> <s_epik_Chemistry_Notes>
This compound has an ester and may undergo hydrolysis at high or low pH.

> <s_lp_Force_Field>
OPLS_2005

> <r_lp_Energy>
38.2212

> <b_lp_Chiralities_Consistent>
1

> <s_lp_Variant>
BACE_144.smi:1-1

$$$$
BACE_144.smi:1
                    3D
 Structure written by MMmdl.
 89 93  0  0  1  0            999 V2000
   -5.7079    4.9393    4.6091 C   0  0  0  0  0  0
   -4.7334    5.0635    5.6338 O   0  0  0  0  0  0
   -3.4204    5.3007    5.1457 C   0  0  0  0  0  0
   -2.8183    4.0907    4.4537 C   0  0  0  0  0  0
   -2.6639    2.8824    5.1625 C   0  0  0  0  0  0
   -2.1270    1.7438    4.5298 C   0  0  0  0  0  0
   -1.7392    1.8294    3.1722 C   0  0  0  0  0  0
   -1.8738    3.0417    2.4551 C   0  0  0  0  0  0
   -2.4103    4.1722    3.1071 C   0  0  0  0  0  0
   -1.4443    3.1454    1.0360 C   0  0  0  0  0  0
   -1.1163    4.2006    0.4926 O   0  0  0  0  0  0
   -1.4826    1.9517    0.4092 O   0  0  0  0  0  0
   -1.0326    1.7821   -0.9310 C   0  0  1  0  0  0
   -0.7461    0.2766   -1.0888 C   0  0  0  0  0  0
    0.3719   -0.1578   -0.2232 N   0  3  0  0  0  0
    0.4954   -1.6232   -0.0676 C   0  0  0  0  0  0
   -0.3298   -2.1776    1.0701 C   0  0  0  0  0  0
    1.1685   -2.0181    1.2253 C   0  0  0  0  0  0
    0.7296   -2.3750   -1.3443 C   0  0  0  0  0  0
    2.0343   -2.5047   -1.8646 C   0  0  0  0  0  0
    2.2662   -3.2052   -3.0688 C   0  0  0  0  0  0
    1.1756   -3.7793   -3.7557 C   0  0  0  0  0  0
   -0.1290   -3.6551   -3.2432 C   0  0  0  0  0  0
   -0.3502   -2.9564   -2.0420 C   0  0  0  0  0  0
    3.6772   -3.3478   -3.6252 C   0  0  0  0  0  0
    4.5781   -4.1597   -2.6813 C   0  0  0  0  0  0
    4.2952   -1.9824   -3.9650 C   0  0  0  0  0  0
   -2.0431    2.3376   -1.9800 C   0  0  1  0  0  0
   -1.4187    2.3560   -3.3165 N   0  3  0  0  0  0
   -3.4105    1.6169   -2.0518 C   0  0  0  0  0  0
   -4.2327    1.7470   -0.7819 C   0  0  0  0  0  0
   -4.3824    0.6501    0.0935 C   0  0  0  0  0  0
   -5.1139    0.7904    1.2981 C   0  0  0  0  0  0
   -5.7185    2.0286    1.5929 C   0  0  0  0  0  0
   -5.5807    3.1215    0.7180 C   0  0  0  0  0  0
   -4.8369    2.9815   -0.4671 C   0  0  0  0  0  0
   -5.2816   -0.2198    2.2168 O   0  0  0  0  0  0
   -4.3667   -1.3085    2.1998 C   0  0  0  0  0  0
   -4.3438   -1.9294    3.6061 C   0  0  0  0  0  0
   -3.8600   -0.9408    4.6820 C   0  0  0  0  0  0
   -2.3417   -0.6968    4.6494 C   0  0  0  0  0  0
   -1.9815    0.5664    5.2804 N   0  0  0  0  0  0
   -0.0904    2.3210   -1.0456 H   0  0  0  0  0  0
   -2.2340    3.3867   -1.7545 H   0  0  0  0  0  0
   -6.6908    4.7931    5.0566 H   0  0  0  0  0  0
   -5.5066    4.0839    3.9638 H   0  0  0  0  0  0
   -5.7500    5.8385    3.9933 H   0  0  0  0  0  0
   -3.4137    6.1704    4.4866 H   0  0  0  0  0  0
   -2.7854    5.5540    5.9948 H   0  0  0  0  0  0
   -2.9694    2.8304    6.1979 H   0  0  0  0  0  0
   -1.2994    0.9728    2.6855 H   0  0  0  0  0  0
   -2.5251    5.1046    2.5726 H   0  0  0  0  0  0
   -1.6347   -0.3025   -0.8366 H   0  0  0  0  0  0
   -0.4940    0.0415   -2.1231 H   0  0  0  0  0  0
    1.2387    0.2057   -0.5934 H   0  0  0  0  0  0
   -0.9574   -1.4928    1.6361 H   0  0  0  0  0  0
   -0.7112   -3.1929    0.9799 H   0  0  0  0  0  0
    1.7616   -2.9307    1.2348 H   0  0  0  0  0  0
    1.5094   -1.2338    1.8990 H   0  0  0  0  0  0
    2.8640   -2.0636   -1.3316 H   0  0  0  0  0  0
    1.3338   -4.3202   -4.6775 H   0  0  0  0  0  0
   -0.9602   -4.0986   -3.7714 H   0  0  0  0  0  0
   -1.3553   -2.8663   -1.6567 H   0  0  0  0  0  0
    3.6091   -3.9072   -4.5594 H   0  0  0  0  0  0
    4.1580   -5.1482   -2.4931 H   0  0  0  0  0  0
    4.7063   -3.6633   -1.7192 H   0  0  0  0  0  0
    5.5691   -4.3019   -3.1132 H   0  0  0  0  0  0
    3.6722   -1.4371   -4.6746 H   0  0  0  0  0  0
    5.2802   -2.1015   -4.4175 H   0  0  0  0  0  0
    4.4144   -1.3603   -3.0777 H   0  0  0  0  0  0
   -1.2208    1.4121   -3.6167 H   0  0  0  0  0  0
   -0.5602    2.8879   -3.2843 H   0  0  0  0  0  0
   -4.0021    2.0404   -2.8649 H   0  0  0  0  0  0
   -3.2815    0.5634   -2.3026 H   0  0  0  0  0  0
   -3.9262   -0.2929   -0.1666 H   0  0  0  0  0  0
   -6.2849    2.1442    2.5055 H   0  0  0  0  0  0
   -6.0424    4.0678    0.9594 H   0  0  0  0  0  0
   -4.7279    3.8264   -1.1314 H   0  0  0  0  0  0
   -4.6903   -2.0444    1.4631 H   0  0  0  0  0  0
   -3.3613   -0.9875    1.9269 H   0  0  0  0  0  0
   -5.3509   -2.2647    3.8564 H   0  0  0  0  0  0
   -3.7158   -2.8211    3.6121 H   0  0  0  0  0  0
   -4.4005   -0.0001    4.5692 H   0  0  0  0  0  0
   -4.1313   -1.3150    5.6697 H   0  0  0  0  0  0
   -1.8365   -1.5025    5.1826 H   0  0  0  0  0  0
   -1.9612   -0.7452    3.6334 H   0  0  0  0  0  0
   -2.2387    0.6412    6.2547 H   0  0  0  0  0  0
   -2.0509    2.7888   -3.9755 H   0  0  0  0  0  0
    0.2275    0.2321    0.6975 H   0  0  0  0  0  0
  1  2  1  0  0  0
  1 45  1  0  0  0
  1 46  1  0  0  0
  1 47  1  0  0  0
  2  3  1  0  0  0
  3  4  1  0  0  0
  3 48  1  0  0  0
  3 49  1  0  0  0
  4  9  1  0  0  0
  4  5  2  0  0  0
  5  6  1  0  0  0
  5 50  1  0  0  0
  6 42  1  0  0  0
  6  7  2  0  0  0
  7  8  1  0  0  0
  7 51  1  0  0  0
  8  9  2  0  0  0
  8 10  1  0  0  0
  9 52  1  0  0  0
 10 11  2  0  0  0
 10 12  1  0  0  0
 12 13  1  0  0  0
 13 43  1  0  0  0
 13 14  1  0  0  0
 13 28  1  0  0  0
 14 15  1  0  0  0
 14 53  1  0  0  0
 14 54  1  0  0  0
 15 16  1  0  0  0
 15 55  1  0  0  0
 15 89  1  0  0  0
 16 18  1  0  0  0
 16 17  1  0  0  0
 16 19  1  0  0  0
 17 18  1  0  0  0
 17 56  1  0  0  0
 17 57  1  0  0  0
 18 58  1  0  0  0
 18 59  1  0  0  0
 19 24  1  0  0  0
 19 20  2  0  0  0
 20 21  1  0  0  0
 20 60  1  0  0  0
 21 22  2  0  0  0
 21 25  1  0  0  0
 22 23  1  0  0  0
 22 61  1  0  0  0
 23 24  2  0  0  0
 23 62  1  0  0  0
 24 63  1  0  0  0
 25 26  1  0  0  0
 25 27  1  0  0  0
 25 64  1  0  0  0
 26 65  1  0  0  0
 26 66  1  0  0  0
 26 67  1  0  0  0
 27 68  1  0  0  0
 27 69  1  0  0  0
 27 70  1  0  0  0
 28 44  1  0  0  0
 28 29  1  0  0  0
 28 30  1  0  0  0
 29 71  1  0  0  0
 29 72  1  0  0  0
 29 88  1  0  0  0
 30 31  1  0  0  0
 30 73  1  0  0  0
 30 74  1  0  0  0
 31 36  1  0  0  0
 31 32  2  0  0  0
 32 33  1  0  0  0
 32 75  1  0  0  0
 33 34  2  0  0  0
 33 37  1  0  0  0
 34 35  1  0  0  0
 34 76  1  0  0  0
 35 36  2  0  0  0
 35 77  1  0  0  0
 36 78  1  0  0  0
 37 38  1  0  0  0
 38 39  1  0  0  0
 38 79  1  0  0  0
 38 80  1  0  0  0
 39 40  1  0  0  0
 39 81  1  0  0  0
 39 82  1  0  0  0
 40 41  1  0  0  0
 40 83  1  0  0  0
 40 84  1  0  0  0
 41 42  1  0  0  0
 41 85  1  0  0  0
 41 86  1  0  0  0
 42 87  1  0  0  0
M  CHG  2  15   1  29   1
M  END
> <s_m_source_file>
BACE_144.smi

> <i_m_source_file_index>
1

> <i_lp_mmshare_version>
42013

> <i_f3d_flags>
0

> <s_epik_input>
W2NIXTFbY0hdW2NIXWMoW0NIXShbQ0gzXSlbQ0gzXSlbY0hdYzFDMihbQ0gyXVtDSDJdMilbTkhdW0NIMl1bQ0BIXShPQyg9TyljKFtjSF0zKVtjSF1jKFtjSF1jMzQpW0NIMl1PW0NIM10pW0NAQEhdKFtOSDJdKVtDSDJdYzVbY0hdYyhbY0hdW2NIXVtjSF01KU9bQ0gyXVtDSDJdW0NIMl1bQ0gyXVtOSF00

> <s_epik_cmdline>
J2VwaWtfcHl0aG9uJywgJy1waCcsICc3LjAnLCAnLXRuJywgJzgnLCAnLW1hJywgJzIwMCcsICctaW1hZScsICc8aW5maWxlLm1hZT4nLCAnLW9tYWUnLCAnPG91dGZpbGUubWFlPic=

> <r_lp_tautomer_probability>
1

> <r_epik_Ionization_Penalty>
1.93707

> <r_epik_Ionization_Penalty_Charging>
1.93686

> <r_epik_Ionization_Penalty_Neutral>
0.000209469

> <r_epik_State_Penalty>
1.91449

> <r_epik_Charging_Adjusted_Penalty>
3.85135

> <i_epik_Tot_Q>
2

> <i_epik_Tot_abs_Q>
2

> <s_epik_Chemistry_Notes>
This compound has an ester and may undergo hydrolysis at high or low pH.

> <s_lp_Force_Field>
OPLS_2005

> <r_lp_Energy>
46.1328

> <b_lp_Chiralities_Consistent>
1

> <s_lp_Variant>
BACE_144.smi:1-2

$$$$
BACE_144.smi:1
                    3D
 Structure written by MMmdl.
 87 91  0  0  1  0            999 V2000
    2.3796    8.3656    1.8972 C   0  0  0  0  0  0
    1.9037    8.5948    0.5796 O   0  0  0  0  0  0
    2.7979    8.1559   -0.4342 C   0  0  0  0  0  0
    2.9062    6.6435   -0.5232 C   0  0  0  0  0  0
    4.1708    6.0256   -0.5992 C   0  0  0  0  0  0
    4.2793    4.6223   -0.6676 C   0  0  0  0  0  0
    3.1012    3.8400   -0.6693 C   0  0  0  0  0  0
    1.8245    4.4489   -0.6112 C   0  0  0  0  0  0
    1.7378    5.8556   -0.5452 C   0  0  0  0  0  0
    0.5782    3.6350   -0.6284 C   0  0  0  0  0  0
   -0.5330    4.0860   -0.9105 O   0  0  0  0  0  0
    0.8085    2.3571   -0.2697 O   0  0  0  0  0  0
   -0.2144    1.3653   -0.2591 C   0  0  1  0  0  0
    0.4586   -0.0206   -0.4071 C   0  0  0  0  0  0
    1.6428   -0.1443    0.4354 N   0  0  0  0  0  0
    2.0315   -1.5321    0.6129 C   0  0  0  0  0  0
    3.4944   -1.8551    0.4035 C   0  0  0  0  0  0
    2.4679   -2.3451   -0.5888 C   0  0  0  0  0  0
    1.3051   -2.1640    1.7633 C   0  0  0  0  0  0
    0.1428   -2.9325    1.5427 C   0  0  0  0  0  0
   -0.5751   -3.4881    2.6238 C   0  0  0  0  0  0
   -0.1135   -3.2780    3.9403 C   0  0  0  0  0  0
    1.0482   -2.5174    4.1701 C   0  0  0  0  0  0
    1.7524   -1.9609    3.0860 C   0  0  0  0  0  0
   -1.8432   -4.2948    2.3774 C   0  0  0  0  0  0
   -1.5599   -5.5621    1.5552 C   0  0  0  0  0  0
   -2.9411   -3.4332    1.7334 C   0  0  0  0  0  0
   -1.1988    1.5054    0.9417 C   0  0  1  0  0  0
   -2.2991    0.5761    0.7550 N   0  0  0  0  0  0
   -0.6185    1.3045    2.3611 C   0  0  0  0  0  0
    0.3736    2.3821    2.7635 C   0  0  0  0  0  0
    1.7353    2.0678    2.9549 C   0  0  0  0  0  0
    2.6687    3.0823    3.2757 C   0  0  0  0  0  0
    2.2122    4.4044    3.4468 C   0  0  0  0  0  0
    0.8518    4.7206    3.2763 C   0  0  0  0  0  0
   -0.0659    3.7114    2.9335 C   0  0  0  0  0  0
    4.0158    2.8557    3.4382 O   0  0  0  0  0  0
    4.5860    1.7158    2.8045 C   0  0  0  0  0  0
    6.0522    2.0416    2.4779 C   0  0  0  0  0  0
    6.1946    3.2226    1.5007 C   0  0  0  0  0  0
    5.8344    2.8643    0.0489 C   0  0  0  0  0  0
    5.5605    4.0534   -0.7486 N   0  0  0  0  0  0
   -0.8069    1.5086   -1.1645 H   0  0  0  0  0  0
   -1.6507    2.4963    0.9007 H   0  0  0  0  0  0
    1.6623    8.7593    2.6169 H   0  0  0  0  0  0
    3.3332    8.8677    2.0650 H   0  0  0  0  0  0
    2.5044    7.3018    2.1016 H   0  0  0  0  0  0
    2.4279    8.5224   -1.3918 H   0  0  0  0  0  0
    3.7806    8.6076   -0.2887 H   0  0  0  0  0  0
    5.0648    6.6324   -0.5951 H   0  0  0  0  0  0
    3.1734    2.7665   -0.7510 H   0  0  0  0  0  0
    0.7730    6.3405   -0.4977 H   0  0  0  0  0  0
   -0.2603   -0.8093   -0.1897 H   0  0  0  0  0  0
    0.7704   -0.1636   -1.4419 H   0  0  0  0  0  0
    1.3973    0.2397    1.3368 H   0  0  0  0  0  0
    4.1555   -1.0573    0.0698 H   0  0  0  0  0  0
    3.9530   -2.6007    1.0499 H   0  0  0  0  0  0
    2.2450   -3.4103   -0.5914 H   0  0  0  0  0  0
    2.4771   -1.8691   -1.5673 H   0  0  0  0  0  0
   -0.2078   -3.0840    0.5323 H   0  0  0  0  0  0
   -0.6498   -3.6946    4.7802 H   0  0  0  0  0  0
    1.3961   -2.3554    5.1796 H   0  0  0  0  0  0
    2.6363   -1.3683    3.2721 H   0  0  0  0  0  0
   -2.2209   -4.6215    3.3473 H   0  0  0  0  0  0
   -0.8181   -6.1904    2.0489 H   0  0  0  0  0  0
   -1.1846   -5.3227    0.5598 H   0  0  0  0  0  0
   -2.4646   -6.1581    1.4311 H   0  0  0  0  0  0
   -3.1679   -2.5631    2.3504 H   0  0  0  0  0  0
   -3.8643   -4.0006    1.6140 H   0  0  0  0  0  0
   -2.6456   -3.0736    0.7472 H   0  0  0  0  0  0
   -2.7044    0.7132   -0.1600 H   0  0  0  0  0  0
   -1.9500   -0.3715    0.7748 H   0  0  0  0  0  0
   -1.4280    1.3271    3.0924 H   0  0  0  0  0  0
   -0.1647    0.3187    2.4593 H   0  0  0  0  0  0
    2.0562    1.0437    2.8473 H   0  0  0  0  0  0
    2.9144    5.1859    3.6979 H   0  0  0  0  0  0
    0.5144    5.7391    3.3999 H   0  0  0  0  0  0
   -1.1071    3.9616    2.7920 H   0  0  0  0  0  0
    4.5245    0.8597    3.4772 H   0  0  0  0  0  0
    4.0633    1.4483    1.8856 H   0  0  0  0  0  0
    6.5722    2.2812    3.4059 H   0  0  0  0  0  0
    6.5486    1.1608    2.0694 H   0  0  0  0  0  0
    5.5787    4.0521    1.8505 H   0  0  0  0  0  0
    7.2207    3.5910    1.5237 H   0  0  0  0  0  0
    6.6694    2.3322   -0.4073 H   0  0  0  0  0  0
    4.9995    2.1689    0.0156 H   0  0  0  0  0  0
    6.3235    4.7129   -0.8016 H   0  0  0  0  0  0
  1  2  1  0  0  0
  1 45  1  0  0  0
  1 46  1  0  0  0
  1 47  1  0  0  0
  2  3  1  0  0  0
  3  4  1  0  0  0
  3 48  1  0  0  0
  3 49  1  0  0  0
  4  9  1  0  0  0
  4  5  2  0  0  0
  5  6  1  0  0  0
  5 50  1  0  0  0
  6 42  1  0  0  0
  6  7  2  0  0  0
  7  8  1  0  0  0
  7 51  1  0  0  0
  8  9  2  0  0  0
  8 10  1  0  0  0
  9 52  1  0  0  0
 10 11  2  0  0  0
 10 12  1  0  0  0
 12 13  1  0  0  0
 13 43  1  0  0  0
 13 14  1  0  0  0
 13 28  1  0  0  0
 14 15  1  0  0  0
 14 53  1  0  0  0
 14 54  1  0  0  0
 15 16  1  0  0  0
 15 55  1  0  0  0
 16 18  1  0  0  0
 16 17  1  0  0  0
 16 19  1  0  0  0
 17 18  1  0  0  0
 17 56  1  0  0  0
 17 57  1  0  0  0
 18 58  1  0  0  0
 18 59  1  0  0  0
 19 24  1  0  0  0
 19 20  2  0  0  0
 20 21  1  0  0  0
 20 60  1  0  0  0
 21 22  2  0  0  0
 21 25  1  0  0  0
 22 23  1  0  0  0
 22 61  1  0  0  0
 23 24  2  0  0  0
 23 62  1  0  0  0
 24 63  1  0  0  0
 25 26  1  0  0  0
 25 27  1  0  0  0
 25 64  1  0  0  0
 26 65  1  0  0  0
 26 66  1  0  0  0
 26 67  1  0  0  0
 27 68  1  0  0  0
 27 69  1  0  0  0
 27 70  1  0  0  0
 28 44  1  0  0  0
 28 29  1  0  0  0
 28 30  1  0  0  0
 29 71  1  0  0  0
 29 72  1  0  0  0
 30 31  1  0  0  0
 30 73  1  0  0  0
 30 74  1  0  0  0
 31 36  1  0  0  0
 31 32  2  0  0  0
 32 33  1  0  0  0
 32 75  1  0  0  0
 33 34  2  0  0  0
 33 37  1  0  0  0
 34 35  1  0  0  0
 34 76  1  0  0  0
 35 36  2  0  0  0
 35 77  1  0  0  0
 36 78  1  0  0  0
 37 38  1  0  0  0
 38 39  1  0  0  0
 38 79  1  0  0  0
 38 80  1  0  0  0
 39 40  1  0  0  0
 39 81  1  0  0  0
 39 82  1  0  0  0
 40 41  1  0  0  0
 40 83  1  0  0  0
 40 84  1  0  0  0
 41 42  1  0  0  0
 41 85  1  0  0  0
 41 86  1  0  0  0
 42 87  1  0  0  0
M  END
> <s_m_source_file>
BACE_144.smi

> <i_m_source_file_index>
1

> <i_lp_mmshare_version>
42013

> <i_f3d_flags>
0

> <s_epik_input>
W2NIXTFbY0hdW2NIXWMoW0NIXShbQ0gzXSlbQ0gzXSlbY0hdYzFDMihbQ0gyXVtDSDJdMilbTkhdW0NIMl1bQ0BIXShPQyg9TyljKFtjSF0zKVtjSF1jKFtjSF1jMzQpW0NIMl1PW0NIM10pW0NAQEhdKFtOSDJdKVtDSDJdYzVbY0hdYyhbY0hdW2NIXVtjSF01KU9bQ0gyXVtDSDJdW0NIMl1bQ0gyXVtOSF00

> <s_epik_cmdline>
J2VwaWtfcHl0aG9uJywgJy1waCcsICc3LjAnLCAnLXRuJywgJzgnLCAnLW1hJywgJzIwMCcsICctaW1hZScsICc8aW5maWxlLm1hZT4nLCAnLW9tYWUnLCAnPG91dGZpbGUubWFlPic=

> <r_lp_tautomer_probability>
1

> <r_epik_Ionization_Penalty>
2.25903

> <r_epik_Ionization_Penalty_Charging>
0

> <r_epik_Ionization_Penalty_Neutral>
2.25903

> <r_epik_State_Penalty>
2.34765

> <r_epik_Charging_Adjusted_Penalty>
2.34765

> <i_epik_Tot_Q>
0

> <i_epik_Tot_abs_Q>
0

> <s_epik_Chemistry_Notes>
This compound has an ester and may undergo hydrolysis at high or low pH.

> <s_lp_Force_Field>
OPLS_2005

> <r_lp_Energy>
45.8012

> <b_lp_Chiralities_Consistent>
1

> <s_lp_Variant>
BACE_144.smi:1-3

$$$$
