BACE_142.smi:1
                    3D
 Structure written by MMmdl.
 58 60  0  0  1  0            999 V2000
   -0.7438    1.1397    0.0112 C   0  0  0  0  0  0
   -0.0011   -0.0710    0.0117 O   0  0  0  0  0  0
    1.3754    0.0093    0.0063 C   0  0  0  0  0  0
    2.0847   -1.2088   -0.0057 C   0  0  0  0  0  0
    3.4932   -1.2338   -0.0145 C   0  0  0  0  0  0
    4.1951   -0.0075    0.0083 C   0  0  0  0  0  0
    3.5141    1.2289    0.0035 C   0  0  0  0  0  0
    2.1009    1.2273    0.0058 C   0  0  0  0  0  0
    4.2883    2.4947   -0.0072 C   0  0  0  0  0  0
    5.5237    2.6597    0.1746 N   0  0  0  0  0  0
    5.8020    4.0650    0.0389 C   0  0  1  0  0  0
    6.9291    4.3325   -0.9924 C   0  0  0  0  0  0
    8.3241    3.7860   -0.5933 C   0  0  2  0  0  0
    9.4501    4.6817   -1.1359 C   0  0  0  0  0  0
    8.5337    2.3211   -1.0449 C   0  0  0  0  0  0
    9.4842    1.5202   -0.1304 C   0  0  0  0  0  0
    9.4048   -0.0095   -0.3111 C   0  0  0  0  0  0
    8.0110   -0.5675    0.0243 C   0  0  0  0  0  0
    7.9437   -2.0859    0.2514 C   0  0  0  0  0  0
    6.5283   -2.5324    0.6648 C   0  0  0  0  0  0
    5.5264   -2.5689   -0.5052 C   0  0  0  0  0  0
    4.1422   -2.4803   -0.0543 N   0  0  0  0  0  0
    4.4498    4.7045   -0.3599 C   0  0  2  0  0  0
    3.9860    5.8057    0.6083 C   0  0  0  0  0  0
    2.9668    6.5786    0.0118 O   0  0  0  0  0  0
    3.5587    3.6065   -0.2893 O   0  0  0  0  0  0
    6.1189    4.4485    1.0102 H   0  0  0  0  0  0
    8.3829    3.8307    0.4949 H   0  0  0  0  0  0
    4.4855    5.0751   -1.3861 H   0  0  0  0  0  0
   -1.8088    0.9083    0.0114 H   0  0  0  0  0  0
   -0.5367    1.7340   -0.8797 H   0  0  0  0  0  0
   -0.5360    1.7361    0.9006 H   0  0  0  0  0  0
    1.5332   -2.1380   -0.0164 H   0  0  0  0  0  0
    5.2721   -0.0032    0.0216 H   0  0  0  0  0  0
    1.5805    2.1730    0.0103 H   0  0  0  0  0  0
    6.6474    3.9582   -1.9778 H   0  0  0  0  0  0
    6.9993    5.4151   -1.1051 H   0  0  0  0  0  0
    9.4342    4.7228   -2.2256 H   0  0  0  0  0  0
   10.4297    4.3136   -0.8307 H   0  0  0  0  0  0
    9.3562    5.7021   -0.7635 H   0  0  0  0  0  0
    7.5688    1.8267   -1.0764 H   0  0  0  0  0  0
    8.8917    2.2864   -2.0745 H   0  0  0  0  0  0
   10.5091    1.8532   -0.2961 H   0  0  0  0  0  0
    9.2627    1.7475    0.9131 H   0  0  0  0  0  0
    9.6837   -0.2872   -1.3281 H   0  0  0  0  0  0
   10.1433   -0.4701    0.3457 H   0  0  0  0  0  0
    7.6355   -0.0660    0.9173 H   0  0  0  0  0  0
    7.3326   -0.3089   -0.7862 H   0  0  0  0  0  0
    8.2673   -2.6233   -0.6408 H   0  0  0  0  0  0
    8.6422   -2.3537    1.0448 H   0  0  0  0  0  0
    6.5741   -3.5245    1.1149 H   0  0  0  0  0  0
    6.1680   -1.8699    1.4531 H   0  0  0  0  0  0
    5.7262   -1.7801   -1.2295 H   0  0  0  0  0  0
    5.6498   -3.5020   -1.0553 H   0  0  0  0  0  0
    3.5713   -3.3090   -0.1413 H   0  0  0  0  0  0
    3.6403    5.3841    1.5527 H   0  0  0  0  0  0
    4.8127    6.4793    0.8354 H   0  0  0  0  0  0
    2.7016    7.2496    0.6222 H   0  0  0  0  0  0
  1  2  1  0  0  0
  1 30  1  0  0  0
  1 31  1  0  0  0
  1 32  1  0  0  0
  2  3  1  0  0  0
  3  8  1  0  0  0
  3  4  2  0  0  0
  4  5  1  0  0  0
  4 33  1  0  0  0
  5 22  1  0  0  0
  5  6  2  0  0  0
  6  7  1  0  0  0
  6 34  1  0  0  0
  7  8  2  0  0  0
  7  9  1  0  0  0
  8 35  1  0  0  0
  9 26  1  0  0  0
  9 10  2  0  0  0
 10 11  1  0  0  0
 11 27  1  0  0  0
 11 12  1  0  0  0
 11 23  1  0  0  0
 12 13  1  0  0  0
 12 36  1  0  0  0
 12 37  1  0  0  0
 13 28  1  0  0  0
 13 14  1  0  0  0
 13 15  1  0  0  0
 14 38  1  0  0  0
 14 39  1  0  0  0
 14 40  1  0  0  0
 15 16  1  0  0  0
 15 41  1  0  0  0
 15 42  1  0  0  0
 16 17  1  0  0  0
 16 43  1  0  0  0
 16 44  1  0  0  0
 17 18  1  0  0  0
 17 45  1  0  0  0
 17 46  1  0  0  0
 18 19  1  0  0  0
 18 47  1  0  0  0
 18 48  1  0  0  0
 19 20  1  0  0  0
 19 49  1  0  0  0
 19 50  1  0  0  0
 20 21  1  0  0  0
 20 51  1  0  0  0
 20 52  1  0  0  0
 21 22  1  0  0  0
 21 53  1  0  0  0
 21 54  1  0  0  0
 22 55  1  0  0  0
 23 29  1  0  0  0
 23 24  1  0  0  0
 23 26  1  0  0  0
 24 25  1  0  0  0
 24 56  1  0  0  0
 24 57  1  0  0  0
 25 58  1  0  0  0
M  END
> <s_m_source_file>
BACE_142.smi

> <i_m_source_file_index>
1

> <i_lp_mmshare_version>
42013

> <i_f3d_flags>
0

> <s_epik_input>
W0NIM11PYyhbY0hdYzEyKVtjSF1jKFtjSF0xKUMzPU5bQ0BIXShbQ0BASF0oTzMpW0NIMl1bT0hdKVtDSDJdW0NASF0oW0NIM10pW0NIMl1bQ0gyXVtDSDJdW0NIMl1bQ0gyXVtDSDJdW0NIMl1bTkhdMg==

> <s_epik_cmdline>
J2VwaWtfcHl0aG9uJywgJy1waCcsICc3LjAnLCAnLXRuJywgJzgnLCAnLW1hJywgJzIwMCcsICctaW1hZScsICc8aW5maWxlLm1hZT4nLCAnLW9tYWUnLCAnPG91dGZpbGUubWFlPic=

> <r_epik_Ionization_Penalty>
0.000539604

> <r_epik_Ionization_Penalty_Charging>
0

> <r_epik_Ionization_Penalty_Neutral>
0.000539604

> <r_epik_State_Penalty>
0.000337384

> <r_epik_Charging_Adjusted_Penalty>
0.000337384

> <i_epik_Tot_Q>
0

> <i_epik_Tot_abs_Q>
0

> <s_epik_Chemistry_Notes>
This compound has an imine and may undergo hydrolysis.

> <s_lp_Force_Field>
OPLS_2005

> <r_lp_Energy>
31.3665

> <b_lp_Chiralities_Consistent>
1

> <s_lp_Variant>
BACE_142.smi:1-1

$$$$
