BACE_149.smi:1
                    3D
 Structure written by MMmdl.
 96 96  0  0  1  0            999 V2000
   -5.1162   -0.1063   -3.0950 C   0  0  0  0  0  0
   -3.6455   -0.4391   -2.8218 C   0  0  0  0  0  0
   -3.4335   -1.9173   -2.4534 C   0  0  0  0  0  0
   -1.9588   -2.3124   -2.2598 C   0  0  0  0  0  0
   -1.3579   -1.6526   -1.1048 N   0  0  0  0  0  0
   -0.5518   -0.5800   -1.1491 C   0  0  0  0  0  0
   -0.2330   -0.0147   -2.1956 O   0  0  0  0  0  0
   -0.0189   -0.0694    0.1978 C   0  0  2  0  0  0
   -0.4788    1.3798    0.4314 C   0  0  0  0  0  0
    1.5216   -0.1791    0.2911 C   0  0  0  0  0  0
    2.0881   -1.6162    0.1954 C   0  0  2  0  0  0
    1.6482   -2.3700    1.3101 O   0  0  0  0  0  0
    3.6330   -1.6829    0.0845 C   0  0  2  0  0  0
    4.1502   -3.1317   -0.0843 C   0  0  0  0  0  0
    5.6550   -3.2742   -0.4391 C   0  0  2  0  0  0
    5.8991   -4.4564   -1.3935 C   0  0  0  0  0  0
    6.6336   -3.2898    0.7685 C   0  0  0  0  0  0
    6.8690   -4.6330    1.5039 C   0  0  0  0  0  0
    5.6742   -5.2335    2.2667 C   0  0  0  0  0  0
    5.1746   -4.3556    3.4261 C   0  0  0  0  0  0
    3.8949   -4.9008    4.0808 C   0  0  0  0  0  0
    3.4144   -4.1049    5.3109 C   0  0  0  0  0  0
    3.1442   -2.6135    5.0321 C   0  0  0  0  0  0
    4.3392   -1.6995    5.4006 C   0  0  2  0  0  0
    4.2222   -1.3181    6.8047 N   0  0  0  0  0  0
    5.2536   -0.8231    7.5845 C   0  0  0  0  0  0
    6.4146   -0.6412    7.2168 O   0  0  0  0  0  0
    4.7645   -0.5757    8.8229 O   0  0  0  0  0  0
    5.5410   -0.0567    9.9121 C   0  0  0  0  0  0
    6.0787    1.3568    9.5980 C   0  0  0  0  0  0
    6.6764   -1.0266   10.3075 C   0  0  0  0  0  0
    4.5400    0.0381   11.0768 C   0  0  0  0  0  0
    4.3134   -0.4588    4.4973 C   0  0  0  0  0  0
    3.3757    0.3377    4.5475 O   0  0  0  0  0  0
    5.3404   -0.3439    3.6407 N   0  0  0  0  0  0
    5.4673    0.6595    2.5820 C   0  0  1  0  0  0
    6.9695    0.8615    2.3176 C   0  0  0  0  0  0
    4.8137    0.1977    1.2615 C   0  0  0  0  0  0
    4.7983    0.9598    0.2951 O   0  0  0  0  0  0
    4.2708   -1.0324    1.2260 N   0  0  0  0  0  0
   -0.4554   -0.6776    0.9918 H   0  0  0  0  0  0
    1.6831   -2.0996   -0.6936 H   0  0  0  0  0  0
    3.9053   -1.1452   -0.8255 H   0  0  0  0  0  0
    5.9114   -2.3854   -1.0174 H   0  0  0  0  0  0
    5.2822   -2.2284    5.2529 H   0  0  0  0  0  0
    5.0189    1.6043    2.8939 H   0  0  0  0  0  0
   -5.2347    0.9469   -3.3504 H   0  0  0  0  0  0
   -5.7343   -0.3076   -2.2197 H   0  0  0  0  0  0
   -5.5066   -0.6956   -3.9251 H   0  0  0  0  0  0
   -3.0517   -0.1931   -3.7028 H   0  0  0  0  0  0
   -3.2835    0.2014   -2.0174 H   0  0  0  0  0  0
   -3.9953   -2.1531   -1.5488 H   0  0  0  0  0  0
   -3.8564   -2.5416   -3.2413 H   0  0  0  0  0  0
   -1.8949   -3.3876   -2.0916 H   0  0  0  0  0  0
   -1.3895   -2.1159   -3.1697 H   0  0  0  0  0  0
   -1.5626   -2.0498   -0.1992 H   0  0  0  0  0  0
   -1.5617    1.4740    0.3395 H   0  0  0  0  0  0
   -0.0227    2.0661   -0.2833 H   0  0  0  0  0  0
   -0.2067    1.7179    1.4317 H   0  0  0  0  0  0
    1.9692    0.4299   -0.4959 H   0  0  0  0  0  0
    1.8442    0.2727    1.2300 H   0  0  0  0  0  0
    1.9769   -1.9599    2.0954 H   0  0  0  0  0  0
    3.9022   -3.7109    0.8005 H   0  0  0  0  0  0
    3.5672   -3.5829   -0.8881 H   0  0  0  0  0  0
    5.5916   -5.4027   -0.9479 H   0  0  0  0  0  0
    6.9532   -4.5363   -1.6607 H   0  0  0  0  0  0
    5.3382   -4.3342   -2.3206 H   0  0  0  0  0  0
    7.6069   -2.9803    0.3856 H   0  0  0  0  0  0
    6.3762   -2.5158    1.4871 H   0  0  0  0  0  0
    7.2443   -5.3740    0.7981 H   0  0  0  0  0  0
    7.6825   -4.4886    2.2158 H   0  0  0  0  0  0
    4.8661   -5.4642    1.5750 H   0  0  0  0  0  0
    5.9775   -6.1983    2.6747 H   0  0  0  0  0  0
    5.9635   -4.2656    4.1735 H   0  0  0  0  0  0
    4.9771   -3.3502    3.0588 H   0  0  0  0  0  0
    3.0973   -4.9232    3.3369 H   0  0  0  0  0  0
    4.0573   -5.9371    4.3790 H   0  0  0  0  0  0
    2.4883   -4.5636    5.6587 H   0  0  0  0  0  0
    4.1210   -4.2157    6.1343 H   0  0  0  0  0  0
    2.8646   -2.5026    3.9826 H   0  0  0  0  0  0
    2.2607   -2.2969    5.5893 H   0  0  0  0  0  0
    3.3220   -1.4026    7.2541 H   0  0  0  0  0  0
    6.5566    1.7962   10.4740 H   0  0  0  0  0  0
    5.2741    2.0267    9.2930 H   0  0  0  0  0  0
    6.8226    1.3511    8.8019 H   0  0  0  0  0  0
    7.4422   -1.1059    9.5365 H   0  0  0  0  0  0
    6.2913   -2.0295   10.4958 H   0  0  0  0  0  0
    7.1765   -0.6916   11.2169 H   0  0  0  0  0  0
    5.0144    0.4278   11.9783 H   0  0  0  0  0  0
    4.1218   -0.9391   11.3218 H   0  0  0  0  0  0
    3.7076    0.6989   10.8320 H   0  0  0  0  0  0
    6.0664   -1.0444    3.6853 H   0  0  0  0  0  0
    7.1446    1.6283    1.5619 H   0  0  0  0  0  0
    7.4479   -0.0581    1.9767 H   0  0  0  0  0  0
    7.4832    1.1828    3.2242 H   0  0  0  0  0  0
    4.3232   -1.5788    2.0734 H   0  0  0  0  0  0
  1  2  1  0  0  0
  1 47  1  0  0  0
  1 48  1  0  0  0
  1 49  1  0  0  0
  2  3  1  0  0  0
  2 50  1  0  0  0
  2 51  1  0  0  0
  3  4  1  0  0  0
  3 52  1  0  0  0
  3 53  1  0  0  0
  4  5  1  0  0  0
  4 54  1  0  0  0
  4 55  1  0  0  0
  5  6  1  0  0  0
  5 56  1  0  0  0
  6  7  2  0  0  0
  6  8  1  0  0  0
  8 41  1  0  0  0
  8  9  1  0  0  0
  8 10  1  0  0  0
  9 57  1  0  0  0
  9 58  1  0  0  0
  9 59  1  0  0  0
 10 11  1  0  0  0
 10 60  1  0  0  0
 10 61  1  0  0  0
 11 42  1  0  0  0
 11 12  1  0  0  0
 11 13  1  0  0  0
 12 62  1  0  0  0
 13 43  1  0  0  0
 13 40  1  0  0  0
 13 14  1  0  0  0
 14 15  1  0  0  0
 14 63  1  0  0  0
 14 64  1  0  0  0
 15 44  1  0  0  0
 15 16  1  0  0  0
 15 17  1  0  0  0
 16 65  1  0  0  0
 16 66  1  0  0  0
 16 67  1  0  0  0
 17 18  1  0  0  0
 17 68  1  0  0  0
 17 69  1  0  0  0
 18 19  1  0  0  0
 18 70  1  0  0  0
 18 71  1  0  0  0
 19 20  1  0  0  0
 19 72  1  0  0  0
 19 73  1  0  0  0
 20 21  1  0  0  0
 20 74  1  0  0  0
 20 75  1  0  0  0
 21 22  1  0  0  0
 21 76  1  0  0  0
 21 77  1  0  0  0
 22 23  1  0  0  0
 22 78  1  0  0  0
 22 79  1  0  0  0
 23 24  1  0  0  0
 23 80  1  0  0  0
 23 81  1  0  0  0
 24 45  1  0  0  0
 24 25  1  0  0  0
 24 33  1  0  0  0
 25 26  1  0  0  0
 25 82  1  0  0  0
 26 27  2  0  0  0
 26 28  1  0  0  0
 28 29  1  0  0  0
 29 30  1  0  0  0
 29 31  1  0  0  0
 29 32  1  0  0  0
 30 83  1  0  0  0
 30 84  1  0  0  0
 30 85  1  0  0  0
 31 86  1  0  0  0
 31 87  1  0  0  0
 31 88  1  0  0  0
 32 89  1  0  0  0
 32 90  1  0  0  0
 32 91  1  0  0  0
 33 34  2  0  0  0
 33 35  1  0  0  0
 35 36  1  0  0  0
 35 92  1  0  0  0
 36 46  1  0  0  0
 36 37  1  0  0  0
 36 38  1  0  0  0
 37 93  1  0  0  0
 37 94  1  0  0  0
 37 95  1  0  0  0
 38 39  2  0  0  0
 38 40  1  0  0  0
 40 96  1  0  0  0
M  END
> <s_m_source_file>
BACE_149.smi

> <i_m_source_file_index>
1

> <i_lp_mmshare_version>
42013

> <i_f3d_flags>
0

> <s_epik_input>
W0NIM11bQ0gyXVtDSDJdW0NIMl1bTkhdQyg9TylbQ0BIXShbQ0gzXSlbQ0gyXVtDQEhdKFtPSF0pW0NAQEhdMVtDSDJdW0NASF0oW0NIM10pW0NIMl1bQ0gyXVtDSDJdW0NIMl1bQ0gyXVtDSDJdW0NIMl1bQ0BIXShbTkhdQyg9TylPQyhbQ0gzXSkoW0NIM10pW0NIM10pQyg9TylbTkhdW0NAQEhdKFtDSDNdKUMoPU8pW05IXTE=

> <s_epik_cmdline>
J2VwaWtfcHl0aG9uJywgJy1waCcsICc3LjAnLCAnLXRuJywgJzgnLCAnLW1hJywgJzIwMCcsICctaW1hZScsICc8aW5maWxlLm1hZT4nLCAnLW9tYWUnLCAnPG91dGZpbGUubWFlPic=

> <r_lp_tautomer_probability>
1

> <r_epik_Ionization_Penalty>
1.53486e-06

> <r_epik_Ionization_Penalty_Charging>
0

> <r_epik_Ionization_Penalty_Neutral>
1.53486e-06

> <r_epik_State_Penalty>
-0

> <r_epik_Charging_Adjusted_Penalty>
0

> <i_epik_Tot_Q>
0

> <i_epik_Tot_abs_Q>
0

> <s_epik_Chemistry_Notes>
This compound has an ester and may undergo hydrolysis at high or low pH.

> <s_lp_Force_Field>
OPLS_2005

> <r_lp_Energy>
23.1074

> <b_lp_Chiralities_Consistent>
1

> <s_lp_Variant>
BACE_149.smi:1-1

$$$$
