BACE_58.smi:1
                    3D
 Structure written by MMmdl.
 81 83  0  0  1  0            999 V2000
   -0.7680    1.8539   -4.5879 C   0  0  0  0  0  0
   -1.1919    1.4361   -3.1701 C   0  0  2  0  0  0
   -2.6863    1.7502   -2.9236 C   0  0  0  0  0  0
   -3.7118    0.9021   -3.7072 C   0  0  0  0  0  0
   -3.6298   -0.6305   -3.5285 C   0  0  0  0  0  0
   -3.3983   -1.1402   -2.0936 C   0  0  0  0  0  0
   -4.4219   -0.6704   -1.0439 C   0  0  0  0  0  0
   -3.9177   -0.9475    0.3803 C   0  0  0  0  0  0
   -4.5634   -0.0437    1.4442 C   0  0  0  0  0  0
   -3.9301   -0.1943    2.7487 N   0  0  0  0  0  0
   -2.5819    0.1645    2.9145 C   0  0  0  0  0  0
   -1.9608    1.1912    2.1604 C   0  0  0  0  0  0
   -0.5905    1.4879    2.3418 C   0  0  0  0  0  0
    0.1508    0.7737    3.3065 C   0  0  0  0  0  0
   -0.4613   -0.2420    4.0632 C   0  0  0  0  0  0
   -1.8219   -0.5428    3.8680 C   0  0  0  0  0  0
    0.0788    2.5951    1.5795 C   0  0  0  0  0  0
    0.5969    3.5229    2.1965 O   0  0  0  0  0  0
    0.1558    2.5281    0.2354 N   0  0  0  0  0  0
   -0.3076    1.4931   -0.6963 C   0  0  1  0  0  0
   -0.3025    2.1322   -2.1107 C   0  0  0  0  0  0
    0.5616    0.1955   -0.6560 C   0  0  2  0  0  0
   -0.0935   -0.7794    0.1308 O   0  0  0  0  0  0
    2.0103    0.3668   -0.1543 C   0  0  0  0  0  0
    2.7780   -0.8917   -0.2667 N   0  3  0  0  0  0
    4.1786   -0.8108    0.1988 C   0  0  0  0  0  0
    4.2623   -0.4692    1.6628 C   0  0  0  0  0  0
    3.9294   -1.2906    2.7798 C   0  0  0  0  0  0
    4.1716   -0.5027    3.8734 C   0  0  0  0  0  0
    4.6208    0.7000    3.3713 N   0  0  0  0  0  0
    4.6786    0.7334    2.0280 N   0  0  0  0  0  0
    4.0444   -0.7605    5.3523 C   0  0  0  0  0  0
    3.4222   -2.1461    5.6192 C   0  0  0  0  0  0
    3.1471    0.3050    6.0123 C   0  0  0  0  0  0
    5.4355   -0.7183    6.0126 C   0  0  0  0  0  0
   -1.0309    0.3625   -3.0991 H   0  0  0  0  0  0
   -1.3375    1.2490   -0.4471 H   0  0  0  0  0  0
    0.6044   -0.2311   -1.6581 H   0  0  0  0  0  0
   -0.9056    2.9245   -4.7444 H   0  0  0  0  0  0
   -1.3461    1.3286   -5.3480 H   0  0  0  0  0  0
    0.2826    1.6245   -4.7682 H   0  0  0  0  0  0
   -2.9117    1.6606   -1.8645 H   0  0  0  0  0  0
   -2.8663    2.8020   -3.1494 H   0  0  0  0  0  0
   -4.7085    1.2295   -3.4096 H   0  0  0  0  0  0
   -3.6444    1.1353   -4.7699 H   0  0  0  0  0  0
   -4.5406   -1.0788   -3.9267 H   0  0  0  0  0  0
   -2.8211   -1.0090   -4.1545 H   0  0  0  0  0  0
   -3.3770   -2.2303   -2.1024 H   0  0  0  0  0  0
   -2.3997   -0.8389   -1.7819 H   0  0  0  0  0  0
   -4.5990    0.3984   -1.1484 H   0  0  0  0  0  0
   -5.3877   -1.1498   -1.2072 H   0  0  0  0  0  0
   -4.0677   -1.9982    0.6312 H   0  0  0  0  0  0
   -2.8410   -0.7889    0.4013 H   0  0  0  0  0  0
   -4.5322    1.0022    1.1394 H   0  0  0  0  0  0
   -5.6190   -0.2965    1.5451 H   0  0  0  0  0  0
   -4.2746   -0.9479    3.3265 H   0  0  0  0  0  0
   -2.5301    1.7646    1.4445 H   0  0  0  0  0  0
    1.1954    1.0002    3.4657 H   0  0  0  0  0  0
    0.1118   -0.7913    4.7953 H   0  0  0  0  0  0
   -2.2798   -1.3276    4.4527 H   0  0  0  0  0  0
    0.6244    3.3073   -0.2040 H   0  0  0  0  0  0
    0.7294    2.1677   -2.4638 H   0  0  0  0  0  0
   -0.6168    3.1757   -2.0470 H   0  0  0  0  0  0
   -0.9741   -0.8899   -0.1953 H   0  0  0  0  0  0
    2.5163    1.1406   -0.7330 H   0  0  0  0  0  0
    2.0125    0.6877    0.8862 H   0  0  0  0  0  0
    2.3026   -1.5970    0.2785 H   0  0  0  0  0  0
    4.6544   -1.7742    0.0157 H   0  0  0  0  0  0
    4.7160   -0.0804   -0.4079 H   0  0  0  0  0  0
    3.5671   -2.3081    2.7748 H   0  0  0  0  0  0
    4.8906    1.4960    3.9324 H   0  0  0  0  0  0
    3.3199   -2.3377    6.6880 H   0  0  0  0  0  0
    4.0359   -2.9465    5.2039 H   0  0  0  0  0  0
    2.4284   -2.2278    5.1772 H   0  0  0  0  0  0
    2.1464    0.3031    5.5821 H   0  0  0  0  0  0
    3.5544    1.3093    5.8893 H   0  0  0  0  0  0
    3.0410    0.1279    7.0831 H   0  0  0  0  0  0
    5.3754   -0.9126    7.0842 H   0  0  0  0  0  0
    5.9108    0.2551    5.8849 H   0  0  0  0  0  0
    6.1011   -1.4663    5.5802 H   0  0  0  0  0  0
    2.7784   -1.1798   -1.2344 H   0  0  0  0  0  0
  1  2  1  0  0  0
  1 39  1  0  0  0
  1 40  1  0  0  0
  1 41  1  0  0  0
  2 36  1  0  0  0
  2 21  1  0  0  0
  2  3  1  0  0  0
  3  4  1  0  0  0
  3 42  1  0  0  0
  3 43  1  0  0  0
  4  5  1  0  0  0
  4 44  1  0  0  0
  4 45  1  0  0  0
  5  6  1  0  0  0
  5 46  1  0  0  0
  5 47  1  0  0  0
  6  7  1  0  0  0
  6 48  1  0  0  0
  6 49  1  0  0  0
  7  8  1  0  0  0
  7 50  1  0  0  0
  7 51  1  0  0  0
  8  9  1  0  0  0
  8 52  1  0  0  0
  8 53  1  0  0  0
  9 10  1  0  0  0
  9 54  1  0  0  0
  9 55  1  0  0  0
 10 11  1  0  0  0
 10 56  1  0  0  0
 11 16  1  0  0  0
 11 12  2  0  0  0
 12 13  1  0  0  0
 12 57  1  0  0  0
 13 14  2  0  0  0
 13 17  1  0  0  0
 14 15  1  0  0  0
 14 58  1  0  0  0
 15 16  2  0  0  0
 15 59  1  0  0  0
 16 60  1  0  0  0
 17 18  2  0  0  0
 17 19  1  0  0  0
 19 20  1  0  0  0
 19 61  1  0  0  0
 20 37  1  0  0  0
 20 21  1  0  0  0
 20 22  1  0  0  0
 21 62  1  0  0  0
 21 63  1  0  0  0
 22 38  1  0  0  0
 22 23  1  0  0  0
 22 24  1  0  0  0
 23 64  1  0  0  0
 24 25  1  0  0  0
 24 65  1  0  0  0
 24 66  1  0  0  0
 25 26  1  0  0  0
 25 67  1  0  0  0
 25 81  1  0  0  0
 26 27  1  0  0  0
 26 68  1  0  0  0
 26 69  1  0  0  0
 27 31  2  0  0  0
 27 28  1  0  0  0
 28 29  2  0  0  0
 28 70  1  0  0  0
 29 30  1  0  0  0
 29 32  1  0  0  0
 30 31  1  0  0  0
 30 71  1  0  0  0
 32 33  1  0  0  0
 32 34  1  0  0  0
 32 35  1  0  0  0
 33 72  1  0  0  0
 33 73  1  0  0  0
 33 74  1  0  0  0
 34 75  1  0  0  0
 34 76  1  0  0  0
 34 77  1  0  0  0
 35 78  1  0  0  0
 35 79  1  0  0  0
 35 80  1  0  0  0
M  CHG  1  25   1
M  END
> <s_m_source_file>
BACE_58.smi

> <i_m_source_file_index>
1

> <i_lp_mmshare_version>
42013

> <i_f3d_flags>
0

> <s_epik_input>
W05IXTFbQ0gyXVtDSDJdW0NIMl1bQ0gyXVtDSDJdW0NIMl1bQ0gyXVtDQEBIXShbQ0gzXSlbQ0gyXVtDQEhdKFtOSF1DKD1PKWMoW2NIXWMxMilbY0hdW2NIXVtjSF0yKVtDQEhdKFtPSF0pW0NIMl1bTkhdW0NIMl1jM1tjSF1jKFtuSF1uMylDKFtDSDNdKShbQ0gzXSlbQ0gzXQ==

> <s_epik_cmdline>
J2VwaWtfcHl0aG9uJywgJy1waCcsICc3LjAnLCAnLXRuJywgJzgnLCAnLW1hJywgJzIwMCcsICctaW1hZScsICc8aW5maWxlLm1hZT4nLCAnLW9tYWUnLCAnPG91dGZpbGUubWFlPic=

> <r_lp_tautomer_probability>
0.5

> <r_epik_Ionization_Penalty>
0.0582136

> <r_epik_Ionization_Penalty_Charging>
0.0574936

> <r_epik_Ionization_Penalty_Neutral>
0.000720023

> <r_epik_State_Penalty>
0.423946

> <r_epik_Charging_Adjusted_Penalty>
0.48144

> <i_epik_Tot_Q>
1

> <i_epik_Tot_abs_Q>
1

> <s_lp_Force_Field>
OPLS_2005

> <r_lp_Energy>
32.8454

> <b_lp_Chiralities_Consistent>
1

> <s_lp_Variant>
BACE_58.smi:1-1

$$$$
BACE_58.smi:1
                    3D
 Structure written by MMmdl.
 81 83  0  0  1  0            999 V2000
   -1.1915    3.4673   -3.5393 C   0  0  0  0  0  0
   -1.6058    2.5122   -2.4075 C   0  0  2  0  0  0
   -3.0746    2.7541   -1.9893 C   0  0  0  0  0  0
   -4.1603    2.3379   -3.0057 C   0  0  0  0  0  0
   -4.1527    0.8630   -3.4660 C   0  0  0  0  0  0
   -3.9176   -0.1926   -2.3692 C   0  0  0  0  0  0
   -4.8948   -0.1463   -1.1807 C   0  0  0  0  0  0
   -4.3805   -0.9913   -0.0063 C   0  0  0  0  0  0
   -4.9541   -0.5531    1.3518 C   0  0  0  0  0  0
   -4.3154   -1.2413    2.4664 N   0  0  0  0  0  0
   -2.9472   -1.0497    2.7192 C   0  0  0  0  0  0
   -2.2614    0.1453    2.3865 C   0  0  0  0  0  0
   -0.8743    0.2704    2.6305 C   0  0  0  0  0  0
   -0.1831   -0.7946    3.2462 C   0  0  0  0  0  0
   -0.8597   -1.9792    3.5884 C   0  0  0  0  0  0
   -2.2357   -2.1048    3.3249 C   0  0  0  0  0  0
   -0.1333    1.5425    2.3310 C   0  0  0  0  0  0
    0.4817    2.1048    3.2341 O   0  0  0  0  0  0
   -0.1006    2.0250    1.0731 N   0  0  0  0  0  0
   -0.6604    1.4941   -0.1746 C   0  0  1  0  0  0
   -0.6566    2.6656   -1.1935 C   0  0  0  0  0  0
    0.1318    0.2659   -0.7222 C   0  0  2  0  0  0
   -0.5285   -0.9256   -0.3458 O   0  0  0  0  0  0
    1.6162    0.1790   -0.3108 C   0  0  0  0  0  0
    2.3245   -0.8665   -1.0741 N   0  3  0  0  0  0
    3.7430   -1.0211   -0.7029 C   0  0  0  0  0  0
    4.3913   -2.0931   -1.5103 C   0  0  0  0  0  0
    4.9620   -2.0653   -2.7511 C   0  0  0  0  0  0
    5.4046   -3.4056   -2.9775 C   0  0  0  0  0  0
    5.1238   -4.1934   -1.9451 N   0  0  0  0  0  0
    4.5096   -3.3873   -1.0621 N   0  0  0  0  0  0
    6.1162   -3.9832   -4.1894 C   0  0  0  0  0  0
    5.2712   -5.1171   -4.8032 C   0  0  0  0  0  0
    7.5027   -4.5167   -3.7790 C   0  0  0  0  0  0
    6.3170   -2.8964   -5.2656 C   0  0  0  0  0  0
   -1.5030    1.5019   -2.7976 H   0  0  0  0  0  0
   -1.6953    1.2119    0.0012 H   0  0  0  0  0  0
    0.0891    0.2818   -1.8110 H   0  0  0  0  0  0
   -1.2680    4.5093   -3.2273 H   0  0  0  0  0  0
   -1.8184    3.3364   -4.4213 H   0  0  0  0  0  0
   -0.1615    3.2881   -3.8485 H   0  0  0  0  0  0
   -3.2775    2.2483   -1.0491 H   0  0  0  0  0  0
   -3.2057    3.8125   -1.7604 H   0  0  0  0  0  0
   -5.1319    2.5530   -2.5599 H   0  0  0  0  0  0
   -4.1055    2.9798   -3.8849 H   0  0  0  0  0  0
   -5.0932    0.6497   -3.9750 H   0  0  0  0  0  0
   -3.3775    0.7403   -4.2231 H   0  0  0  0  0  0
   -3.9526   -1.1860   -2.8175 H   0  0  0  0  0  0
   -2.8987   -0.0816   -2.0018 H   0  0  0  0  0  0
   -5.0189    0.8801   -0.8409 H   0  0  0  0  0  0
   -5.8869   -0.4803   -1.4860 H   0  0  0  0  0  0
   -4.5894   -2.0464   -0.1863 H   0  0  0  0  0  0
   -3.2958   -0.9064    0.0328 H   0  0  0  0  0  0
   -4.8603    0.5244    1.4861 H   0  0  0  0  0  0
   -6.0224   -0.7692    1.3827 H   0  0  0  0  0  0
   -4.7096   -2.1338    2.7286 H   0  0  0  0  0  0
   -2.7953    0.9781    1.9546 H   0  0  0  0  0  0
    0.8722   -0.7069    3.4606 H   0  0  0  0  0  0
   -0.3235   -2.7917    4.0560 H   0  0  0  0  0  0
   -2.7439   -3.0211    3.5886 H   0  0  0  0  0  0
    0.4157    2.8859    0.9631 H   0  0  0  0  0  0
    0.3666    2.8071   -1.5450 H   0  0  0  0  0  0
   -0.9147    3.5977   -0.6871 H   0  0  0  0  0  0
   -1.4297   -0.8747   -0.6279 H   0  0  0  0  0  0
    2.1094    1.1338   -0.4980 H   0  0  0  0  0  0
    1.7138   -0.0334    0.7544 H   0  0  0  0  0  0
    1.8536   -1.7464   -0.9163 H   0  0  0  0  0  0
    4.2640   -0.0759   -0.8593 H   0  0  0  0  0  0
    3.8172   -1.2551    0.3599 H   0  0  0  0  0  0
    5.0508   -1.2083   -3.4023 H   0  0  0  0  0  0
    4.1867   -3.7311   -0.1686 H   0  0  0  0  0  0
    5.7490   -5.5325   -5.6911 H   0  0  0  0  0  0
    4.2837   -4.7598   -5.0976 H   0  0  0  0  0  0
    5.1271   -5.9384   -4.1003 H   0  0  0  0  0  0
    7.4239   -5.3174   -3.0426 H   0  0  0  0  0  0
    8.1177   -3.7285   -3.3429 H   0  0  0  0  0  0
    8.0430   -4.9184   -4.6369 H   0  0  0  0  0  0
    6.8257   -3.2971   -6.1433 H   0  0  0  0  0  0
    6.9215   -2.0693   -4.8914 H   0  0  0  0  0  0
    5.3643   -2.4861   -5.6027 H   0  0  0  0  0  0
    2.2703   -0.6441   -2.0577 H   0  0  0  0  0  0
  1  2  1  0  0  0
  1 39  1  0  0  0
  1 40  1  0  0  0
  1 41  1  0  0  0
  2 36  1  0  0  0
  2 21  1  0  0  0
  2  3  1  0  0  0
  3  4  1  0  0  0
  3 42  1  0  0  0
  3 43  1  0  0  0
  4  5  1  0  0  0
  4 44  1  0  0  0
  4 45  1  0  0  0
  5  6  1  0  0  0
  5 46  1  0  0  0
  5 47  1  0  0  0
  6  7  1  0  0  0
  6 48  1  0  0  0
  6 49  1  0  0  0
  7  8  1  0  0  0
  7 50  1  0  0  0
  7 51  1  0  0  0
  8  9  1  0  0  0
  8 52  1  0  0  0
  8 53  1  0  0  0
  9 10  1  0  0  0
  9 54  1  0  0  0
  9 55  1  0  0  0
 10 11  1  0  0  0
 10 56  1  0  0  0
 11 16  1  0  0  0
 11 12  2  0  0  0
 12 13  1  0  0  0
 12 57  1  0  0  0
 13 14  2  0  0  0
 13 17  1  0  0  0
 14 15  1  0  0  0
 14 58  1  0  0  0
 15 16  2  0  0  0
 15 59  1  0  0  0
 16 60  1  0  0  0
 17 18  2  0  0  0
 17 19  1  0  0  0
 19 20  1  0  0  0
 19 61  1  0  0  0
 20 37  1  0  0  0
 20 21  1  0  0  0
 20 22  1  0  0  0
 21 62  1  0  0  0
 21 63  1  0  0  0
 22 38  1  0  0  0
 22 23  1  0  0  0
 22 24  1  0  0  0
 23 64  1  0  0  0
 24 25  1  0  0  0
 24 65  1  0  0  0
 24 66  1  0  0  0
 25 26  1  0  0  0
 25 67  1  0  0  0
 25 81  1  0  0  0
 26 68  1  0  0  0
 26 69  1  0  0  0
 26 27  1  0  0  0
 27 31  1  0  0  0
 27 28  2  0  0  0
 28 29  1  0  0  0
 28 70  1  0  0  0
 29 32  1  0  0  0
 29 30  2  0  0  0
 30 31  1  0  0  0
 31 71  1  0  0  0
 32 33  1  0  0  0
 32 34  1  0  0  0
 32 35  1  0  0  0
 33 72  1  0  0  0
 33 73  1  0  0  0
 33 74  1  0  0  0
 34 75  1  0  0  0
 34 76  1  0  0  0
 34 77  1  0  0  0
 35 78  1  0  0  0
 35 79  1  0  0  0
 35 80  1  0  0  0
M  CHG  1  25   1
M  END
> <s_m_source_file>
BACE_58.smi

> <i_m_source_file_index>
1

> <i_lp_mmshare_version>
42013

> <i_f3d_flags>
0

> <s_epik_input>
W05IXTFbQ0gyXVtDSDJdW0NIMl1bQ0gyXVtDSDJdW0NIMl1bQ0gyXVtDQEBIXShbQ0gzXSlbQ0gyXVtDQEhdKFtOSF1DKD1PKWMoW2NIXWMxMilbY0hdW2NIXVtjSF0yKVtDQEhdKFtPSF0pW0NIMl1bTkhdW0NIMl1jM1tjSF1jKFtuSF1uMylDKFtDSDNdKShbQ0gzXSlbQ0gzXQ==

> <s_epik_cmdline>
J2VwaWtfcHl0aG9uJywgJy1waCcsICc3LjAnLCAnLXRuJywgJzgnLCAnLW1hJywgJzIwMCcsICctaW1hZScsICc8aW5maWxlLm1hZT4nLCAnLW9tYWUnLCAnPG91dGZpbGUubWFlPic=

> <r_lp_tautomer_probability>
0.5

> <r_epik_Ionization_Penalty>
0.1265

> <r_epik_Ionization_Penalty_Charging>
0.125773

> <r_epik_Ionization_Penalty_Neutral>
0.000726451

> <r_epik_State_Penalty>
0.557017

> <r_epik_Charging_Adjusted_Penalty>
0.68279

> <i_epik_Tot_Q>
1

> <i_epik_Tot_abs_Q>
1

> <s_lp_Force_Field>
OPLS_2005

> <r_lp_Energy>
29.3488

> <b_lp_Chiralities_Consistent>
1

> <s_lp_Variant>
BACE_58.smi:1-2

$$$$
BACE_58.smi:1
                    3D
 Structure written by MMmdl.
 80 82  0  0  1  0            999 V2000
   -0.4815    2.4728   -3.9493 C   0  0  0  0  0  0
   -0.9731    1.7384   -2.6909 C   0  0  2  0  0  0
   -2.4420    2.1031   -2.3746 C   0  0  0  0  0  0
   -3.5127    1.5613   -3.3467 C   0  0  0  0  0  0
   -3.5581    0.0301   -3.5491 C   0  0  0  0  0  0
   -3.4064   -0.8318   -2.2817 C   0  0  0  0  0  0
   -4.4167   -0.5455   -1.1561 C   0  0  0  0  0  0
   -3.9877   -1.2151    0.1579 C   0  0  0  0  0  0
   -4.5648   -0.5271    1.4068 C   0  0  0  0  0  0
   -3.9913   -1.0533    2.6391 N   0  0  0  0  0  0
   -2.6177   -0.8961    2.8888 C   0  0  0  0  0  0
   -1.8667    0.2029    2.4022 C   0  0  0  0  0  0
   -0.4780    0.2928    2.6533 C   0  0  0  0  0  0
    0.1513   -0.7080    3.4236 C   0  0  0  0  0  0
   -0.5905   -1.7962    3.9174 C   0  0  0  0  0  0
   -1.9687   -1.8879    3.6513 C   0  0  0  0  0  0
    0.3276    1.4733    2.1909 C   0  0  0  0  0  0
    0.9461    2.1386    3.0190 O   0  0  0  0  0  0
    0.4021    1.7649    0.8771 N   0  0  0  0  0  0
   -0.1382    1.0626   -0.2933 C   0  0  1  0  0  0
   -0.0564    2.0549   -1.4838 C   0  0  0  0  0  0
    0.6225   -0.2636   -0.6119 C   0  0  2  0  0  0
   -0.1243   -1.3486   -0.0992 O   0  0  0  0  0  0
    2.0661   -0.3460   -0.0756 C   0  0  0  0  0  0
    2.8312   -1.4061   -0.7297 N   0  0  0  0  0  0
    4.2096   -1.5232   -0.2590 C   0  0  0  0  0  0
    4.3018   -2.0894    1.1213 C   0  0  0  0  0  0
    4.2493   -1.4899    2.3482 C   0  0  0  0  0  0
    4.3663   -2.5636    3.2839 C   0  0  0  0  0  0
    4.4932   -3.7355    2.6701 N   0  0  0  0  0  0
    4.4509   -3.4345    1.3599 N   0  0  0  0  0  0
    4.3548   -2.5088    4.8021 C   0  0  0  0  0  0
    4.2028   -1.0525    5.2890 C   0  0  0  0  0  0
    5.6797   -3.0669    5.3580 C   0  0  0  0  0  0
    3.1657   -3.3246    5.3462 C   0  0  0  0  0  0
   -0.9033    0.6734   -2.9025 H   0  0  0  0  0  0
   -1.1888    0.8494   -0.1118 H   0  0  0  0  0  0
    0.6485   -0.4072   -1.6920 H   0  0  0  0  0  0
   -0.5210    3.5548   -3.8194 H   0  0  0  0  0  0
   -1.0852    2.2191   -4.8204 H   0  0  0  0  0  0
    0.5489    2.2039   -4.1836 H   0  0  0  0  0  0
   -2.6943    1.7731   -1.3704 H   0  0  0  0  0  0
   -2.5337    3.1890   -2.3327 H   0  0  0  0  0  0
   -4.4872    1.8884   -2.9829 H   0  0  0  0  0  0
   -3.3999    2.0399   -4.3196 H   0  0  0  0  0  0
   -4.4908   -0.2293   -4.0510 H   0  0  0  0  0  0
   -2.7657   -0.2513   -4.2436 H   0  0  0  0  0  0
   -3.4738   -1.8847   -2.5573 H   0  0  0  0  0  0
   -2.3951   -0.7012   -1.8997 H   0  0  0  0  0  0
   -4.4933    0.5274   -0.9898 H   0  0  0  0  0  0
   -5.4158   -0.8743   -1.4433 H   0  0  0  0  0  0
   -4.2595   -2.2711    0.1445 H   0  0  0  0  0  0
   -2.9008   -1.1904    0.2199 H   0  0  0  0  0  0
   -4.4123    0.5512    1.3642 H   0  0  0  0  0  0
   -5.6441   -0.6776    1.4402 H   0  0  0  0  0  0
   -4.4266   -1.8844    3.0131 H   0  0  0  0  0  0
   -2.3497    0.9901    1.8435 H   0  0  0  0  0  0
    1.2084   -0.6462    3.6378 H   0  0  0  0  0  0
   -0.1035   -2.5619    4.5024 H   0  0  0  0  0  0
   -2.5263   -2.7311    4.0324 H   0  0  0  0  0  0
    0.9602    2.5761    0.6534 H   0  0  0  0  0  0
    0.9824    2.1014   -1.8146 H   0  0  0  0  0  0
   -0.2918    3.0647   -1.1424 H   0  0  0  0  0  0
   -0.9859   -1.3323   -0.4868 H   0  0  0  0  0  0
    2.5673    0.6059   -0.2554 H   0  0  0  0  0  0
    2.0530   -0.4928    1.0040 H   0  0  0  0  0  0
    2.8156   -1.2811   -1.7368 H   0  0  0  0  0  0
    4.7646   -2.1685   -0.9402 H   0  0  0  0  0  0
    4.7053   -0.5526   -0.2977 H   0  0  0  0  0  0
    4.1301   -0.4346    2.5444 H   0  0  0  0  0  0
    4.5161   -4.1488    0.6487 H   0  0  0  0  0  0
    4.1936   -0.9974    6.3781 H   0  0  0  0  0  0
    3.2729   -0.6061    4.9353 H   0  0  0  0  0  0
    5.0248   -0.4262    4.9401 H   0  0  0  0  0  0
    6.5350   -2.5051    4.9806 H   0  0  0  0  0  0
    5.8238   -4.1114    5.0796 H   0  0  0  0  0  0
    5.7058   -3.0156    6.4471 H   0  0  0  0  0  0
    3.1197   -3.2826    6.4349 H   0  0  0  0  0  0
    3.2364   -4.3758    5.0651 H   0  0  0  0  0  0
    2.2190   -2.9450    4.9616 H   0  0  0  0  0  0
  1  2  1  0  0  0
  1 39  1  0  0  0
  1 40  1  0  0  0
  1 41  1  0  0  0
  2 36  1  0  0  0
  2 21  1  0  0  0
  2  3  1  0  0  0
  3  4  1  0  0  0
  3 42  1  0  0  0
  3 43  1  0  0  0
  4  5  1  0  0  0
  4 44  1  0  0  0
  4 45  1  0  0  0
  5  6  1  0  0  0
  5 46  1  0  0  0
  5 47  1  0  0  0
  6  7  1  0  0  0
  6 48  1  0  0  0
  6 49  1  0  0  0
  7  8  1  0  0  0
  7 50  1  0  0  0
  7 51  1  0  0  0
  8  9  1  0  0  0
  8 52  1  0  0  0
  8 53  1  0  0  0
  9 10  1  0  0  0
  9 54  1  0  0  0
  9 55  1  0  0  0
 10 11  1  0  0  0
 10 56  1  0  0  0
 11 16  1  0  0  0
 11 12  2  0  0  0
 12 13  1  0  0  0
 12 57  1  0  0  0
 13 14  2  0  0  0
 13 17  1  0  0  0
 14 15  1  0  0  0
 14 58  1  0  0  0
 15 16  2  0  0  0
 15 59  1  0  0  0
 16 60  1  0  0  0
 17 18  2  0  0  0
 17 19  1  0  0  0
 19 20  1  0  0  0
 19 61  1  0  0  0
 20 37  1  0  0  0
 20 21  1  0  0  0
 20 22  1  0  0  0
 21 62  1  0  0  0
 21 63  1  0  0  0
 22 38  1  0  0  0
 22 23  1  0  0  0
 22 24  1  0  0  0
 23 64  1  0  0  0
 24 25  1  0  0  0
 24 65  1  0  0  0
 24 66  1  0  0  0
 25 26  1  0  0  0
 25 67  1  0  0  0
 26 68  1  0  0  0
 26 69  1  0  0  0
 26 27  1  0  0  0
 27 31  1  0  0  0
 27 28  2  0  0  0
 28 29  1  0  0  0
 28 70  1  0  0  0
 29 32  1  0  0  0
 29 30  2  0  0  0
 30 31  1  0  0  0
 31 71  1  0  0  0
 32 33  1  0  0  0
 32 34  1  0  0  0
 32 35  1  0  0  0
 33 72  1  0  0  0
 33 73  1  0  0  0
 33 74  1  0  0  0
 34 75  1  0  0  0
 34 76  1  0  0  0
 34 77  1  0  0  0
 35 78  1  0  0  0
 35 79  1  0  0  0
 35 80  1  0  0  0
M  END
> <s_m_source_file>
BACE_58.smi

> <i_m_source_file_index>
1

> <i_lp_mmshare_version>
42013

> <i_f3d_flags>
0

> <s_epik_input>
W05IXTFbQ0gyXVtDSDJdW0NIMl1bQ0gyXVtDSDJdW0NIMl1bQ0gyXVtDQEBIXShbQ0gzXSlbQ0gyXVtDQEhdKFtOSF1DKD1PKWMoW2NIXWMxMilbY0hdW2NIXVtjSF0yKVtDQEhdKFtPSF0pW0NIMl1bTkhdW0NIMl1jM1tjSF1jKFtuSF1uMylDKFtDSDNdKShbQ0gzXSlbQ0gzXQ==

> <s_epik_cmdline>
J2VwaWtfcHl0aG9uJywgJy1waCcsICc3LjAnLCAnLXRuJywgJzgnLCAnLW1hJywgJzIwMCcsICctaW1hZScsICc8aW5maWxlLm1hZT4nLCAnLW9tYWUnLCAnPG91dGZpbGUubWFlPic=

> <r_lp_tautomer_probability>
0.5

> <r_epik_Ionization_Penalty>
0.981534

> <r_epik_Ionization_Penalty_Charging>
0

> <r_epik_Ionization_Penalty_Neutral>
0.981534

> <r_epik_State_Penalty>
1.60166

> <r_epik_Charging_Adjusted_Penalty>
1.60166

> <i_epik_Tot_Q>
0

> <i_epik_Tot_abs_Q>
0

> <s_lp_Force_Field>
OPLS_2005

> <r_lp_Energy>
37.5199

> <b_lp_Chiralities_Consistent>
1

> <s_lp_Variant>
BACE_58.smi:1-3

$$$$
BACE_58.smi:1
                    3D
 Structure written by MMmdl.
 80 82  0  0  1  0            999 V2000
   -0.0216    1.7316   -3.9850 C   0  0  0  0  0  0
   -0.8034    1.3456   -2.7181 C   0  0  2  0  0  0
   -2.2294    1.9429   -2.7439 C   0  0  0  0  0  0
   -3.2131    1.3360   -3.7681 C   0  0  0  0  0  0
   -3.4625   -0.1860   -3.6726 C   0  0  0  0  0  0
   -3.6367   -0.7601   -2.2540 C   0  0  0  0  0  0
   -4.7509   -0.1158   -1.4094 C   0  0  0  0  0  0
   -4.6261   -0.5102    0.0696 C   0  0  0  0  0  0
   -5.2771    0.5050    1.0245 C   0  0  0  0  0  0
   -4.9898    0.2079    2.4221 N   0  0  0  0  0  0
   -3.6664    0.2598    2.8900 C   0  0  0  0  0  0
   -2.6824    1.1119    2.3286 C   0  0  0  0  0  0
   -1.3549    1.0961    2.8154 C   0  0  0  0  0  0
   -1.0254    0.2487    3.8946 C   0  0  0  0  0  0
   -1.9996   -0.5913    4.4634 C   0  0  0  0  0  0
   -3.3138   -0.5846    3.9621 C   0  0  0  0  0  0
   -0.3053    2.0223    2.2700 C   0  0  0  0  0  0
    0.2792    2.7832    3.0383 O   0  0  0  0  0  0
    0.0184    1.9831    0.9624 N   0  0  0  0  0  0
   -0.4524    1.1119   -0.1206 C   0  0  1  0  0  0
   -0.0393    1.7999   -1.4500 C   0  0  0  0  0  0
    0.1294   -0.3326   -0.0284 C   0  0  2  0  0  0
   -0.8025   -1.1620    0.6359 O   0  0  0  0  0  0
    1.5046   -0.4522    0.6622 C   0  0  0  0  0  0
    2.1854   -1.6865    0.2833 N   0  0  0  0  0  0
    3.5128   -1.8164    0.8722 C   0  0  0  0  0  0
    4.1486   -3.1261    0.5052 C   0  0  0  0  0  0
    3.7587   -4.4349    0.9146 C   0  0  0  0  0  0
    4.6527   -5.2708    0.3014 C   0  0  0  0  0  0
    5.4942   -4.4487   -0.4178 N   0  0  0  0  0  0
    5.1978   -3.1414   -0.3021 N   0  0  0  0  0  0
    4.8055   -6.7693    0.3129 C   0  0  0  0  0  0
    3.7439   -7.4262    1.2183 C   0  0  0  0  0  0
    6.1993   -7.1567    0.8445 C   0  0  0  0  0  0
    4.6383   -7.3299   -1.1128 C   0  0  0  0  0  0
   -0.8674    0.2596   -2.7094 H   0  0  0  0  0  0
   -1.5383    1.0718   -0.0911 H   0  0  0  0  0  0
    0.2132   -0.7394   -1.0358 H   0  0  0  0  0  0
    0.0848    2.8134   -4.0725 H   0  0  0  0  0  0
   -0.5177    1.3710   -4.8858 H   0  0  0  0  0  0
    0.9795    1.2997   -3.9755 H   0  0  0  0  0  0
   -2.6767    1.8686   -1.7561 H   0  0  0  0  0  0
   -2.1584    3.0155   -2.9277 H   0  0  0  0  0  0
   -4.1690    1.8484   -3.6543 H   0  0  0  0  0  0
   -2.8834    1.5752   -4.7792 H   0  0  0  0  0  0
   -4.3384   -0.4363   -4.2719 H   0  0  0  0  0  0
   -2.6280   -0.7047   -4.1458 H   0  0  0  0  0  0
   -3.8204   -1.8327   -2.3230 H   0  0  0  0  0  0
   -2.6873   -0.6666   -1.7292 H   0  0  0  0  0  0
   -4.6946    0.9686   -1.4850 H   0  0  0  0  0  0
   -5.7330   -0.3901   -1.7957 H   0  0  0  0  0  0
   -5.0459   -1.5044    0.2269 H   0  0  0  0  0  0
   -3.5692   -0.5927    0.3189 H   0  0  0  0  0  0
   -4.9560    1.5206    0.7935 H   0  0  0  0  0  0
   -6.3584    0.4929    0.8877 H   0  0  0  0  0  0
   -5.6068   -0.4508    2.8754 H   0  0  0  0  0  0
   -2.9394    1.7907    1.5296 H   0  0  0  0  0  0
   -0.0203    0.2384    4.2913 H   0  0  0  0  0  0
   -1.7387   -1.2408    5.2858 H   0  0  0  0  0  0
   -4.0523   -1.2377    4.4045 H   0  0  0  0  0  0
    0.7334    2.6393    0.6839 H   0  0  0  0  0  0
    1.0309    1.6433   -1.5933 H   0  0  0  0  0  0
   -0.1587    2.8811   -1.3601 H   0  0  0  0  0  0
   -1.6198   -1.1372    0.1623 H   0  0  0  0  0  0
    2.1267    0.3919    0.3613 H   0  0  0  0  0  0
    1.3978   -0.3890    1.7460 H   0  0  0  0  0  0
    2.2624   -1.7290   -0.7278 H   0  0  0  0  0  0
    4.1441   -0.9868    0.5503 H   0  0  0  0  0  0
    3.4436   -1.7414    1.9581 H   0  0  0  0  0  0
    2.9402   -4.7112    1.5627 H   0  0  0  0  0  0
    6.2664   -4.7670   -0.9858 H   0  0  0  0  0  0
    3.8526   -8.5114    1.2367 H   0  0  0  0  0  0
    2.7330   -7.2070    0.8723 H   0  0  0  0  0  0
    3.8245   -7.0740    2.2475 H   0  0  0  0  0  0
    6.3546   -6.7808    1.8566 H   0  0  0  0  0  0
    6.9954   -6.7518    0.2186 H   0  0  0  0  0  0
    6.3281   -8.2393    0.8729 H   0  0  0  0  0  0
    4.7298   -8.4167   -1.1272 H   0  0  0  0  0  0
    5.3926   -6.9315   -1.7924 H   0  0  0  0  0  0
    3.6604   -7.0772   -1.5245 H   0  0  0  0  0  0
  1  2  1  0  0  0
  1 39  1  0  0  0
  1 40  1  0  0  0
  1 41  1  0  0  0
  2 36  1  0  0  0
  2 21  1  0  0  0
  2  3  1  0  0  0
  3  4  1  0  0  0
  3 42  1  0  0  0
  3 43  1  0  0  0
  4  5  1  0  0  0
  4 44  1  0  0  0
  4 45  1  0  0  0
  5  6  1  0  0  0
  5 46  1  0  0  0
  5 47  1  0  0  0
  6  7  1  0  0  0
  6 48  1  0  0  0
  6 49  1  0  0  0
  7  8  1  0  0  0
  7 50  1  0  0  0
  7 51  1  0  0  0
  8  9  1  0  0  0
  8 52  1  0  0  0
  8 53  1  0  0  0
  9 10  1  0  0  0
  9 54  1  0  0  0
  9 55  1  0  0  0
 10 11  1  0  0  0
 10 56  1  0  0  0
 11 16  1  0  0  0
 11 12  2  0  0  0
 12 13  1  0  0  0
 12 57  1  0  0  0
 13 14  2  0  0  0
 13 17  1  0  0  0
 14 15  1  0  0  0
 14 58  1  0  0  0
 15 16  2  0  0  0
 15 59  1  0  0  0
 16 60  1  0  0  0
 17 18  2  0  0  0
 17 19  1  0  0  0
 19 20  1  0  0  0
 19 61  1  0  0  0
 20 37  1  0  0  0
 20 21  1  0  0  0
 20 22  1  0  0  0
 21 62  1  0  0  0
 21 63  1  0  0  0
 22 38  1  0  0  0
 22 23  1  0  0  0
 22 24  1  0  0  0
 23 64  1  0  0  0
 24 25  1  0  0  0
 24 65  1  0  0  0
 24 66  1  0  0  0
 25 26  1  0  0  0
 25 67  1  0  0  0
 26 27  1  0  0  0
 26 68  1  0  0  0
 26 69  1  0  0  0
 27 31  2  0  0  0
 27 28  1  0  0  0
 28 29  2  0  0  0
 28 70  1  0  0  0
 29 30  1  0  0  0
 29 32  1  0  0  0
 30 31  1  0  0  0
 30 71  1  0  0  0
 32 33  1  0  0  0
 32 34  1  0  0  0
 32 35  1  0  0  0
 33 72  1  0  0  0
 33 73  1  0  0  0
 33 74  1  0  0  0
 34 75  1  0  0  0
 34 76  1  0  0  0
 34 77  1  0  0  0
 35 78  1  0  0  0
 35 79  1  0  0  0
 35 80  1  0  0  0
M  END
> <s_m_source_file>
BACE_58.smi

> <i_m_source_file_index>
1

> <i_lp_mmshare_version>
42013

> <i_f3d_flags>
0

> <s_epik_input>
W05IXTFbQ0gyXVtDSDJdW0NIMl1bQ0gyXVtDSDJdW0NIMl1bQ0gyXVtDQEBIXShbQ0gzXSlbQ0gyXVtDQEhdKFtOSF1DKD1PKWMoW2NIXWMxMilbY0hdW2NIXVtjSF0yKVtDQEhdKFtPSF0pW0NIMl1bTkhdW0NIMl1jM1tjSF1jKFtuSF1uMylDKFtDSDNdKShbQ0gzXSlbQ0gzXQ==

> <s_epik_cmdline>
J2VwaWtfcHl0aG9uJywgJy1waCcsICc3LjAnLCAnLXRuJywgJzgnLCAnLW1hJywgJzIwMCcsICctaW1hZScsICc8aW5maWxlLm1hZT4nLCAnLW9tYWUnLCAnPG91dGZpbGUubWFlPic=

> <r_lp_tautomer_probability>
0.5

> <r_epik_Ionization_Penalty>
1.41278

> <r_epik_Ionization_Penalty_Charging>
0

> <r_epik_Ionization_Penalty_Neutral>
1.41278

> <r_epik_State_Penalty>
1.73473

> <r_epik_Charging_Adjusted_Penalty>
1.73473

> <i_epik_Tot_Q>
0

> <i_epik_Tot_abs_Q>
0

> <s_lp_Force_Field>
OPLS_2005

> <r_lp_Energy>
41.8679

> <b_lp_Chiralities_Consistent>
1

> <s_lp_Variant>
BACE_58.smi:1-4

$$$$
