BACE_105.smi:1
                    3D
 Structure written by MMmdl.
 79 82  0  0  1  0            999 V2000
   -0.3743    5.6360   -2.7981 C   0  0  0  0  0  0
   -1.1928    4.3357   -2.8266 C   0  0  0  0  0  0
   -2.6370    4.5852   -3.2892 C   0  0  0  0  0  0
   -1.1487    3.6149   -1.4849 C   0  0  0  0  0  0
   -1.6978    4.2118   -0.3286 C   0  0  0  0  0  0
   -1.6559    3.5390    0.9072 C   0  0  0  0  0  0
   -1.0630    2.2660    0.9969 C   0  0  0  0  0  0
   -0.5070    1.6628   -0.1506 C   0  0  0  0  0  0
    0.1447    0.2950   -0.0568 C   0  0  0  0  0  0
    1.6193    0.3821    0.0076 N   0  3  0  0  0  0
    2.1563    1.0160    1.2313 C   0  0  0  0  0  0
    3.6989    0.9745    1.2591 C   0  0  1  0  0  0
    4.1632    1.7622    0.1788 O   0  0  0  0  0  0
    4.3069    1.5291    2.5708 C   0  0  2  0  0  0
    5.8525    1.4347    2.6068 C   0  0  0  0  0  0
    6.4655    1.9905    3.8840 C   0  0  0  0  0  0
    6.5615    3.3840    4.0658 C   0  0  0  0  0  0
    7.1043    3.9073    5.2549 C   0  0  0  0  0  0
    7.1946    5.4078    5.4411 C   0  0  0  0  0  0
    7.5514    3.0346    6.2685 C   0  0  0  0  0  0
    7.4561    1.6306    6.1028 C   0  0  0  0  0  0
    6.9200    1.1236    4.9003 C   0  0  0  0  0  0
    7.8575    0.7048    7.0443 O   0  0  0  0  0  0
    8.1765    1.1281    8.3697 C   0  0  0  0  0  0
    6.9242    1.5366    9.1708 C   0  0  0  0  0  0
    5.8702    0.4219    9.2379 C   0  0  0  0  0  0
    4.5446    0.8957    9.8667 C   0  0  0  0  0  0
    3.4351   -0.0111    9.5914 N   0  0  0  0  0  0
    2.9956   -0.1909    8.2706 C   0  0  0  0  0  0
    3.2560    0.7541    7.2506 C   0  0  0  0  0  0
    2.8905    0.4473    5.9263 C   0  0  0  0  0  0
    2.2219   -0.7701    5.6777 C   0  0  0  0  0  0
    1.9645   -1.6320    6.7630 C   0  0  0  0  0  0
    1.1394   -3.1173    6.4667 Cl  0  0  0  0  0  0
    2.3486   -1.3511    8.0276 N   0  0  0  0  0  0
    3.2226    1.4000    4.8208 C   0  0  0  0  0  0
    3.0949    2.6149    4.9702 O   0  0  0  0  0  0
    3.7445    0.8259    3.7251 N   0  0  0  0  0  0
   -0.5546    2.3380   -1.3883 C   0  0  0  0  0  0
    4.0366   -0.0522    1.1095 H   0  0  0  0  0  0
    4.0378    2.5857    2.6306 H   0  0  0  0  0  0
    0.6625    5.4402   -2.5226 H   0  0  0  0  0  0
   -0.7800    6.3521   -2.0829 H   0  0  0  0  0  0
   -0.3686    6.1163   -3.7770 H   0  0  0  0  0  0
   -0.7296    3.6835   -3.5683 H   0  0  0  0  0  0
   -3.1948    3.6505   -3.3536 H   0  0  0  0  0  0
   -2.6570    5.0482   -4.2761 H   0  0  0  0  0  0
   -3.1713    5.2456   -2.6058 H   0  0  0  0  0  0
   -2.1551    5.1888   -0.3847 H   0  0  0  0  0  0
   -2.0788    4.0012    1.7870 H   0  0  0  0  0  0
   -1.0324    1.7578    1.9497 H   0  0  0  0  0  0
   -0.2329   -0.2479    0.8110 H   0  0  0  0  0  0
   -0.1308   -0.2900   -0.9349 H   0  0  0  0  0  0
    1.9906   -0.5555   -0.0467 H   0  0  0  0  0  0
    1.8106    2.0478    1.3054 H   0  0  0  0  0  0
    1.7429    0.4807    2.0864 H   0  0  0  0  0  0
    3.9354    2.6655    0.3411 H   0  0  0  0  0  0
    6.1638    0.3966    2.4832 H   0  0  0  0  0  0
    6.2843    1.9785    1.7660 H   0  0  0  0  0  0
    6.2112    4.0539    3.2938 H   0  0  0  0  0  0
    7.7920    5.6658    6.3161 H   0  0  0  0  0  0
    6.1980    5.8302    5.5712 H   0  0  0  0  0  0
    7.6539    5.8721    4.5681 H   0  0  0  0  0  0
    7.9618    3.4644    7.1690 H   0  0  0  0  0  0
    6.8412    0.0544    4.7677 H   0  0  0  0  0  0
    8.6523    0.2836    8.8688 H   0  0  0  0  0  0
    8.9261    1.9195    8.3650 H   0  0  0  0  0  0
    7.2165    1.8210   10.1821 H   0  0  0  0  0  0
    6.4768    2.4259    8.7276 H   0  0  0  0  0  0
    5.6941    0.0630    8.2246 H   0  0  0  0  0  0
    6.2589   -0.4331    9.7920 H   0  0  0  0  0  0
    4.6640    0.9762   10.9472 H   0  0  0  0  0  0
    4.2836    1.8967    9.5238 H   0  0  0  0  0  0
    3.2771   -0.7655   10.2441 H   0  0  0  0  0  0
    3.7736    1.6797    7.4547 H   0  0  0  0  0  0
    1.9086   -1.0426    4.6804 H   0  0  0  0  0  0
    3.8312   -0.1802    3.7276 H   0  0  0  0  0  0
   -0.1300    1.8729   -2.2663 H   0  0  0  0  0  0
    1.9484    0.9022   -0.7936 H   0  0  0  0  0  0
  1  2  1  0  0  0
  1 42  1  0  0  0
  1 43  1  0  0  0
  1 44  1  0  0  0
  2  3  1  0  0  0
  2  4  1  0  0  0
  2 45  1  0  0  0
  3 46  1  0  0  0
  3 47  1  0  0  0
  3 48  1  0  0  0
  4 39  1  0  0  0
  4  5  2  0  0  0
  5  6  1  0  0  0
  5 49  1  0  0  0
  6  7  2  0  0  0
  6 50  1  0  0  0
  7  8  1  0  0  0
  7 51  1  0  0  0
  8  9  1  0  0  0
  8 39  2  0  0  0
  9 10  1  0  0  0
  9 52  1  0  0  0
  9 53  1  0  0  0
 10 11  1  0  0  0
 10 54  1  0  0  0
 10 79  1  0  0  0
 11 12  1  0  0  0
 11 55  1  0  0  0
 11 56  1  0  0  0
 12 40  1  0  0  0
 12 13  1  0  0  0
 12 14  1  0  0  0
 13 57  1  0  0  0
 14 41  1  0  0  0
 14 38  1  0  0  0
 14 15  1  0  0  0
 15 16  1  0  0  0
 15 58  1  0  0  0
 15 59  1  0  0  0
 16 22  1  0  0  0
 16 17  2  0  0  0
 17 18  1  0  0  0
 17 60  1  0  0  0
 18 19  1  0  0  0
 18 20  2  0  0  0
 19 61  1  0  0  0
 19 62  1  0  0  0
 19 63  1  0  0  0
 20 21  1  0  0  0
 20 64  1  0  0  0
 21 22  2  0  0  0
 21 23  1  0  0  0
 22 65  1  0  0  0
 23 24  1  0  0  0
 24 25  1  0  0  0
 24 66  1  0  0  0
 24 67  1  0  0  0
 25 26  1  0  0  0
 25 68  1  0  0  0
 25 69  1  0  0  0
 26 27  1  0  0  0
 26 70  1  0  0  0
 26 71  1  0  0  0
 27 28  1  0  0  0
 27 72  1  0  0  0
 27 73  1  0  0  0
 28 29  1  0  0  0
 28 74  1  0  0  0
 29 35  1  0  0  0
 29 30  2  0  0  0
 30 31  1  0  0  0
 30 75  1  0  0  0
 31 32  2  0  0  0
 31 36  1  0  0  0
 32 33  1  0  0  0
 32 76  1  0  0  0
 33 34  1  0  0  0
 33 35  2  0  0  0
 36 37  2  0  0  0
 36 38  1  0  0  0
 38 77  1  0  0  0
 39 78  1  0  0  0
M  CHG  1  10   1
M  END
> <s_m_source_file>
BACE_105.smi

> <i_m_source_file_index>
1

> <i_lp_mmshare_version>
42013

> <i_f3d_flags>
0

> <s_epik_input>
W0NIM11bQ0hdKFtDSDNdKWMxW2NIXVtjSF1bY0hdYyhbY0hdMSlbQ0gyXVtOSF1bQ0gyXVtDQEBIXShbT0hdKVtDQEhdKFtDSDJdMilbTkhdQyg9TyljKFtjSF1jKENsKW4zKVtjSF1jM1tOSF1bQ0gyXVtDSDJdW0NIMl1bQ0gyXU9jKFtjSF00KVtjSF1jKFtjSF1jMjQpW0NIM10=

> <s_epik_cmdline>
J2VwaWtfcHl0aG9uJywgJy1waCcsICc3LjAnLCAnLXRuJywgJzgnLCAnLW1hJywgJzIwMCcsICctaW1hZScsICc8aW5maWxlLm1hZT4nLCAnLW9tYWUnLCAnPG91dGZpbGUubWFlPic=

> <r_lp_tautomer_probability>
1

> <r_epik_Ionization_Penalty>
0.0200589

> <r_epik_Ionization_Penalty_Charging>
0.0200546

> <r_epik_Ionization_Penalty_Neutral>
4.28326e-06

> <r_epik_State_Penalty>
0.0160525

> <r_epik_Charging_Adjusted_Penalty>
0.0361071

> <i_epik_Tot_Q>
1

> <i_epik_Tot_abs_Q>
1

> <s_lp_Force_Field>
OPLS_2005

> <r_lp_Energy>
21.3199

> <b_lp_Chiralities_Consistent>
1

> <s_lp_Variant>
BACE_105.smi:1-1

$$$$
BACE_105.smi:1
                    3D
 Structure written by MMmdl.
 78 81  0  0  1  0            999 V2000
   -4.1651    2.0954   -2.0998 C   0  0  0  0  0  0
   -2.8480    2.8697   -2.2635 C   0  0  0  0  0  0
   -2.1117    2.4720   -3.5526 C   0  0  0  0  0  0
   -1.9566    2.7232   -1.0367 C   0  0  0  0  0  0
   -1.6492    3.8530   -0.2483 C   0  0  0  0  0  0
   -0.8269    3.7245    0.8873 C   0  0  0  0  0  0
   -0.3053    2.4661    1.2418 C   0  0  0  0  0  0
   -0.6047    1.3313    0.4603 C   0  0  0  0  0  0
   -0.0343   -0.0219    0.8348 C   0  0  0  0  0  0
    1.4106   -0.0738    0.6432 N   0  0  0  0  0  0
    1.9947   -1.3748    0.9545 C   0  0  0  0  0  0
    3.5179   -1.3771    0.6962 C   0  0  1  0  0  0
    4.1298   -0.8062    1.8365 O   0  0  0  0  0  0
    4.1132   -2.7896    0.4740 C   0  0  2  0  0  0
    5.6432   -2.7526    0.2227 C   0  0  0  0  0  0
    6.2625   -4.1130   -0.0638 C   0  0  0  0  0  0
    6.4871   -5.0181    0.9916 C   0  0  0  0  0  0
    7.0474   -6.2837    0.7319 C   0  0  0  0  0  0
    7.2804   -7.2486    1.8760 C   0  0  0  0  0  0
    7.3856   -6.6465   -0.5883 C   0  0  0  0  0  0
    7.1584   -5.7497   -1.6614 C   0  0  0  0  0  0
    6.6046   -4.4828   -1.3818 C   0  0  0  0  0  0
    7.4476   -6.0238   -2.9828 O   0  0  0  0  0  0
    7.7842   -7.3532   -3.3784 C   0  0  0  0  0  0
    6.5685   -8.3010   -3.3478 C   0  0  0  0  0  0
    5.3928   -7.7927   -4.1950 C   0  0  0  0  0  0
    4.1135   -8.6291   -3.9940 C   0  0  0  0  0  0
    2.9147   -7.9489   -4.4723 N   0  0  0  0  0  0
    2.4767   -6.7709   -3.8465 C   0  0  0  0  0  0
    2.8988   -6.3991   -2.5485 C   0  0  0  0  0  0
    2.5072   -5.1479   -2.0355 C   0  0  0  0  0  0
    1.6569   -4.3367   -2.8163 C   0  0  0  0  0  0
    1.2507   -4.8071   -4.0812 C   0  0  0  0  0  0
    0.2023   -3.8253   -5.0360 Cl  0  0  0  0  0  0
    1.6574   -5.9927   -4.5863 N   0  0  0  0  0  0
    3.0014   -4.7028   -0.6947 C   0  0  0  0  0  0
    3.0680   -5.4884    0.2506 O   0  0  0  0  0  0
    3.4418   -3.4355   -0.6551 N   0  0  0  0  0  0
   -1.4305    1.4629   -0.6754 C   0  0  0  0  0  0
    3.7496   -0.7590   -0.1730 H   0  0  0  0  0  0
    3.9318   -3.3731    1.3788 H   0  0  0  0  0  0
   -4.7036    2.4240   -1.2104 H   0  0  0  0  0  0
   -3.9934    1.0225   -2.0080 H   0  0  0  0  0  0
   -4.8208    2.2522   -2.9566 H   0  0  0  0  0  0
   -3.1078    3.9249   -2.3589 H   0  0  0  0  0  0
   -1.2063    3.0656   -3.6839 H   0  0  0  0  0  0
   -2.7410    2.6345   -4.4279 H   0  0  0  0  0  0
   -1.8231    1.4206   -3.5453 H   0  0  0  0  0  0
   -2.0420    4.8246   -0.5100 H   0  0  0  0  0  0
   -0.5949    4.5927    1.4864 H   0  0  0  0  0  0
    0.3283    2.3732    2.1119 H   0  0  0  0  0  0
   -0.2848   -0.2296    1.8759 H   0  0  0  0  0  0
   -0.5208   -0.7934    0.2364 H   0  0  0  0  0  0
    1.6357    0.1803   -0.3132 H   0  0  0  0  0  0
    1.7790   -1.6621    1.9847 H   0  0  0  0  0  0
    1.5082   -2.1217    0.3276 H   0  0  0  0  0  0
    3.8978   -1.3230    2.5928 H   0  0  0  0  0  0
    5.8625   -2.0836   -0.6106 H   0  0  0  0  0  0
    6.1565   -2.3298    1.0870 H   0  0  0  0  0  0
    6.2241   -4.7428    2.0027 H   0  0  0  0  0  0
    7.6677   -8.2040    1.5209 H   0  0  0  0  0  0
    6.3465   -7.4372    2.4064 H   0  0  0  0  0  0
    7.9984   -6.8303    2.5817 H   0  0  0  0  0  0
    7.8166   -7.6209   -0.7572 H   0  0  0  0  0  0
    6.4275   -3.7936   -2.1945 H   0  0  0  0  0  0
    8.1592   -7.2968   -4.4005 H   0  0  0  0  0  0
    8.6129   -7.7446   -2.7880 H   0  0  0  0  0  0
    6.8695   -9.2885   -3.6988 H   0  0  0  0  0  0
    6.2348   -8.4388   -2.3198 H   0  0  0  0  0  0
    5.2037   -6.7547   -3.9236 H   0  0  0  0  0  0
    5.6656   -7.7773   -5.2507 H   0  0  0  0  0  0
    4.2098   -9.5749   -4.5275 H   0  0  0  0  0  0
    3.9795   -8.8940   -2.9453 H   0  0  0  0  0  0
    2.6311   -8.1117   -5.4276 H   0  0  0  0  0  0
    3.5539   -7.0274   -1.9634 H   0  0  0  0  0  0
    1.3182   -3.3752   -2.4578 H   0  0  0  0  0  0
    3.3587   -2.8897   -1.5004 H   0  0  0  0  0  0
   -1.6594    0.5928   -1.2731 H   0  0  0  0  0  0
  1  2  1  0  0  0
  1 42  1  0  0  0
  1 43  1  0  0  0
  1 44  1  0  0  0
  2  3  1  0  0  0
  2  4  1  0  0  0
  2 45  1  0  0  0
  3 46  1  0  0  0
  3 47  1  0  0  0
  3 48  1  0  0  0
  4 39  1  0  0  0
  4  5  2  0  0  0
  5  6  1  0  0  0
  5 49  1  0  0  0
  6  7  2  0  0  0
  6 50  1  0  0  0
  7  8  1  0  0  0
  7 51  1  0  0  0
  8  9  1  0  0  0
  8 39  2  0  0  0
  9 10  1  0  0  0
  9 52  1  0  0  0
  9 53  1  0  0  0
 10 11  1  0  0  0
 10 54  1  0  0  0
 11 12  1  0  0  0
 11 55  1  0  0  0
 11 56  1  0  0  0
 12 40  1  0  0  0
 12 13  1  0  0  0
 12 14  1  0  0  0
 13 57  1  0  0  0
 14 41  1  0  0  0
 14 38  1  0  0  0
 14 15  1  0  0  0
 15 16  1  0  0  0
 15 58  1  0  0  0
 15 59  1  0  0  0
 16 22  1  0  0  0
 16 17  2  0  0  0
 17 18  1  0  0  0
 17 60  1  0  0  0
 18 19  1  0  0  0
 18 20  2  0  0  0
 19 61  1  0  0  0
 19 62  1  0  0  0
 19 63  1  0  0  0
 20 21  1  0  0  0
 20 64  1  0  0  0
 21 22  2  0  0  0
 21 23  1  0  0  0
 22 65  1  0  0  0
 23 24  1  0  0  0
 24 25  1  0  0  0
 24 66  1  0  0  0
 24 67  1  0  0  0
 25 26  1  0  0  0
 25 68  1  0  0  0
 25 69  1  0  0  0
 26 27  1  0  0  0
 26 70  1  0  0  0
 26 71  1  0  0  0
 27 28  1  0  0  0
 27 72  1  0  0  0
 27 73  1  0  0  0
 28 29  1  0  0  0
 28 74  1  0  0  0
 29 35  1  0  0  0
 29 30  2  0  0  0
 30 31  1  0  0  0
 30 75  1  0  0  0
 31 32  2  0  0  0
 31 36  1  0  0  0
 32 33  1  0  0  0
 32 76  1  0  0  0
 33 34  1  0  0  0
 33 35  2  0  0  0
 36 37  2  0  0  0
 36 38  1  0  0  0
 38 77  1  0  0  0
 39 78  1  0  0  0
M  END
> <s_m_source_file>
BACE_105.smi

> <i_m_source_file_index>
1

> <i_lp_mmshare_version>
42013

> <i_f3d_flags>
0

> <s_epik_input>
W0NIM11bQ0hdKFtDSDNdKWMxW2NIXVtjSF1bY0hdYyhbY0hdMSlbQ0gyXVtOSF1bQ0gyXVtDQEBIXShbT0hdKVtDQEhdKFtDSDJdMilbTkhdQyg9TyljKFtjSF1jKENsKW4zKVtjSF1jM1tOSF1bQ0gyXVtDSDJdW0NIMl1bQ0gyXU9jKFtjSF00KVtjSF1jKFtjSF1jMjQpW0NIM10=

> <s_epik_cmdline>
J2VwaWtfcHl0aG9uJywgJy1waCcsICc3LjAnLCAnLXRuJywgJzgnLCAnLW1hJywgJzIwMCcsICctaW1hZScsICc8aW5maWxlLm1hZT4nLCAnLW9tYWUnLCAnPG91dGZpbGUubWFlPic=

> <r_lp_tautomer_probability>
1

> <r_epik_Ionization_Penalty>
2.01608

> <r_epik_Ionization_Penalty_Charging>
0

> <r_epik_Ionization_Penalty_Neutral>
2.01608

> <r_epik_State_Penalty>
2.14597

> <r_epik_Charging_Adjusted_Penalty>
2.14597

> <i_epik_Tot_Q>
0

> <i_epik_Tot_abs_Q>
0

> <s_lp_Force_Field>
OPLS_2005

> <r_lp_Energy>
28.8296

> <b_lp_Chiralities_Consistent>
1

> <s_lp_Variant>
BACE_105.smi:1-2

$$$$
