BACE_133.smi:1
                    3D
 Structure written by MMmdl.
 89 93  0  0  1  0            999 V2000
   -0.2544    1.9203    9.3456 C   0  0  0  0  0  0
   -0.1516    2.3002    7.8740 C   0  0  0  0  0  0
    0.5762    3.2212    7.5054 O   0  0  0  0  0  0
   -0.9831    1.4796    6.8897 C   0  0  0  0  0  0
   -0.8851    2.0495    5.5925 O   0  0  0  0  0  0
   -1.4359    1.3497    4.5424 C   0  0  0  0  0  0
   -2.1943    0.1631    4.6852 C   0  0  0  0  0  0
   -2.7013   -0.5198    3.5606 C   0  0  0  0  0  0
   -2.4477   -0.0002    2.2668 C   0  0  0  0  0  0
   -1.7053    1.1926    2.1125 C   0  0  0  0  0  0
   -1.2213    1.8643    3.2518 C   0  0  0  0  0  0
   -1.4699    1.7990    0.7597 C   0  0  0  0  0  0
   -1.9716    2.8879    0.4902 O   0  0  0  0  0  0
   -0.6694    1.1617   -0.1157 N   0  0  0  0  0  0
    0.0482   -0.1085    0.0244 C   0  0  1  0  0  0
   -0.1946   -0.9133   -1.2775 C   0  0  0  0  0  0
   -0.2807   -2.4096   -1.0421 C   0  0  0  0  0  0
   -1.4107   -2.9383   -0.3879 C   0  0  0  0  0  0
   -1.4964   -4.3163   -0.1120 C   0  0  0  0  0  0
   -2.6953   -4.8633    0.6393 C   0  0  0  0  0  0
   -2.4757   -4.9156    2.1619 C   0  0  0  0  0  0
   -2.2966   -3.5492    2.8544 C   0  0  0  0  0  0
   -3.5622   -2.6731    2.8426 C   0  0  0  0  0  0
   -3.4576   -1.6429    3.8195 O   0  0  0  0  0  0
   -0.4557   -5.1755   -0.5221 C   0  0  0  0  0  0
    0.6649   -4.6545   -1.1984 C   0  0  0  0  0  0
    0.7545   -3.2728   -1.4571 C   0  0  0  0  0  0
    1.5536    0.1496    0.3112 C   0  0  2  0  0  0
    2.2176   -1.0943    0.4167 O   0  0  0  0  0  0
    1.8166    0.8975    1.6348 C   0  0  0  0  0  0
    3.1778    1.4281    1.6906 N   0  0  0  0  0  0
    3.5800    2.1644    2.8978 C   0  0  0  0  0  0
    3.6903    1.3820    4.1928 C   0  0  0  0  0  0
    2.6092    2.4181    4.0447 C   0  0  0  0  0  0
    4.6113    3.1995    2.5673 C   0  0  0  0  0  0
    5.9922    2.9279    2.6583 C   0  0  0  0  0  0
    6.9247    3.9349    2.3158 C   0  0  0  0  0  0
    6.4047    5.1799    1.8850 C   0  0  0  0  0  0
    5.0081    5.3511    1.8194 C   0  0  0  0  0  0
    4.1246    4.3871    2.1475 N   0  0  0  0  0  0
    8.4337    3.6496    2.4104 C   0  0  0  0  0  0
    9.2987    4.8767    2.0449 C   0  0  0  0  0  0
    8.7996    2.5062    1.4424 C   0  0  0  0  0  0
    8.7952    3.2336    3.8517 C   0  0  0  0  0  0
   -0.3653   -0.6729    0.8579 H   0  0  0  0  0  0
    1.9857    0.7060   -0.5222 H   0  0  0  0  0  0
   -0.2046    0.8378    9.4634 H   0  0  0  0  0  0
   -1.1994    2.2711    9.7602 H   0  0  0  0  0  0
    0.5610    2.3668    9.9149 H   0  0  0  0  0  0
   -0.6070    0.4559    6.8855 H   0  0  0  0  0  0
   -2.0232    1.4642    7.2171 H   0  0  0  0  0  0
   -2.4032   -0.2487    5.6610 H   0  0  0  0  0  0
   -2.8389   -0.4798    1.3837 H   0  0  0  0  0  0
   -0.6600    2.7810    3.1377 H   0  0  0  0  0  0
   -0.5345    1.6289   -1.0006 H   0  0  0  0  0  0
   -1.1435   -0.6238   -1.7327 H   0  0  0  0  0  0
    0.5693   -0.6869   -2.0227 H   0  0  0  0  0  0
   -2.2049   -2.2777   -0.0728 H   0  0  0  0  0  0
   -3.5775   -4.2676    0.4027 H   0  0  0  0  0  0
   -2.9063   -5.8675    0.2698 H   0  0  0  0  0  0
   -3.3163   -5.4358    2.6223 H   0  0  0  0  0  0
   -1.5998   -5.5318    2.3681 H   0  0  0  0  0  0
   -2.0274   -3.7414    3.8936 H   0  0  0  0  0  0
   -1.4540   -3.0036    2.4299 H   0  0  0  0  0  0
   -3.8012   -2.3033    1.8472 H   0  0  0  0  0  0
   -4.4160   -3.2839    3.1363 H   0  0  0  0  0  0
   -0.5114   -6.2341   -0.3150 H   0  0  0  0  0  0
    1.4608   -5.3141   -1.5110 H   0  0  0  0  0  0
    1.6242   -2.8776   -1.9616 H   0  0  0  0  0  0
    1.8591   -1.5654    1.1532 H   0  0  0  0  0  0
    1.1339    1.7406    1.7137 H   0  0  0  0  0  0
    1.6099    0.2451    2.4842 H   0  0  0  0  0  0
    3.4048    1.9607    0.8568 H   0  0  0  0  0  0
    3.3722    0.3413    4.1962 H   0  0  0  0  0  0
    4.5131    1.6170    4.8653 H   0  0  0  0  0  0
    2.7284    3.3383    4.6133 H   0  0  0  0  0  0
    1.5918    2.0393    4.0045 H   0  0  0  0  0  0
    6.3234    1.9534    2.9844 H   0  0  0  0  0  0
    7.0396    6.0046    1.6014 H   0  0  0  0  0  0
    4.5889    6.2903    1.4905 H   0  0  0  0  0  0
   10.3619    4.6484    2.1270 H   0  0  0  0  0  0
    9.1014    5.7203    2.7077 H   0  0  0  0  0  0
    9.1232    5.2035    1.0193 H   0  0  0  0  0  0
    8.5453    2.7643    0.4136 H   0  0  0  0  0  0
    8.2766    1.5814    1.6870 H   0  0  0  0  0  0
    9.8676    2.2877    1.4714 H   0  0  0  0  0  0
    9.8653    3.0502    3.9551 H   0  0  0  0  0  0
    8.2854    2.3195    4.1565 H   0  0  0  0  0  0
    8.5261    4.0127    4.5661 H   0  0  0  0  0  0
  1  2  1  0  0  0
  1 47  1  0  0  0
  1 48  1  0  0  0
  1 49  1  0  0  0
  2  3  2  0  0  0
  2  4  1  0  0  0
  4  5  1  0  0  0
  4 50  1  0  0  0
  4 51  1  0  0  0
  5  6  1  0  0  0
  6 11  1  0  0  0
  6  7  2  0  0  0
  7  8  1  0  0  0
  7 52  1  0  0  0
  8 24  1  0  0  0
  8  9  2  0  0  0
  9 10  1  0  0  0
  9 53  1  0  0  0
 10 11  2  0  0  0
 10 12  1  0  0  0
 11 54  1  0  0  0
 12 13  2  0  0  0
 12 14  1  0  0  0
 14 15  1  0  0  0
 14 55  1  0  0  0
 15 45  1  0  0  0
 15 16  1  0  0  0
 15 28  1  0  0  0
 16 17  1  0  0  0
 16 56  1  0  0  0
 16 57  1  0  0  0
 17 27  1  0  0  0
 17 18  2  0  0  0
 18 19  1  0  0  0
 18 58  1  0  0  0
 19 20  1  0  0  0
 19 25  2  0  0  0
 20 21  1  0  0  0
 20 59  1  0  0  0
 20 60  1  0  0  0
 21 22  1  0  0  0
 21 61  1  0  0  0
 21 62  1  0  0  0
 22 23  1  0  0  0
 22 63  1  0  0  0
 22 64  1  0  0  0
 23 24  1  0  0  0
 23 65  1  0  0  0
 23 66  1  0  0  0
 25 26  1  0  0  0
 25 67  1  0  0  0
 26 27  2  0  0  0
 26 68  1  0  0  0
 27 69  1  0  0  0
 28 46  1  0  0  0
 28 29  1  0  0  0
 28 30  1  0  0  0
 29 70  1  0  0  0
 30 31  1  0  0  0
 30 71  1  0  0  0
 30 72  1  0  0  0
 31 32  1  0  0  0
 31 73  1  0  0  0
 32 34  1  0  0  0
 32 33  1  0  0  0
 32 35  1  0  0  0
 33 34  1  0  0  0
 33 74  1  0  0  0
 33 75  1  0  0  0
 34 76  1  0  0  0
 34 77  1  0  0  0
 35 40  1  0  0  0
 35 36  2  0  0  0
 36 37  1  0  0  0
 36 78  1  0  0  0
 37 38  2  0  0  0
 37 41  1  0  0  0
 38 39  1  0  0  0
 38 79  1  0  0  0
 39 40  2  0  0  0
 39 80  1  0  0  0
 41 42  1  0  0  0
 41 43  1  0  0  0
 41 44  1  0  0  0
 42 81  1  0  0  0
 42 82  1  0  0  0
 42 83  1  0  0  0
 43 84  1  0  0  0
 43 85  1  0  0  0
 43 86  1  0  0  0
 44 87  1  0  0  0
 44 88  1  0  0  0
 44 89  1  0  0  0
M  END
> <s_m_source_file>
BACE_133.smi

> <i_m_source_file_index>
1

> <i_lp_mmshare_version>
42013

> <i_f3d_flags>
0

> <s_epik_input>
W0NIM11DKD1PKVtDSDJdT2MoW2NIXWMxMilbY0hdYyhbY0hdMSlDKD1PKVtOSF1bQ0BASF0oW0NIMl1jM1tjSF1jKFtjSF1bY0hdW2NIXTMpW0NIMl1bQ0gyXVtDSDJdW0NIMl1PMilbQ0BIXShbT0hdKVtDSDJdW05IXUM0KFtDSDJdW0NIMl00KWM1W2NIXWMoW2NIXVtjSF1uNSlDKFtDSDNdKShbQ0gzXSlbQ0gzXQ==

> <s_epik_cmdline>
J2VwaWtfcHl0aG9uJywgJy1waCcsICc3LjAnLCAnLXRuJywgJzgnLCAnLW1hJywgJzIwMCcsICctaW1hZScsICc8aW5maWxlLm1hZT4nLCAnLW9tYWUnLCAnPG91dGZpbGUubWFlPic=

> <r_lp_tautomer_probability>
1

> <r_epik_Ionization_Penalty>
0.192935

> <r_epik_Ionization_Penalty_Charging>
0

> <r_epik_Ionization_Penalty_Neutral>
0.192935

> <r_epik_State_Penalty>
0.0786867

> <r_epik_Charging_Adjusted_Penalty>
0.0786867

> <i_epik_Tot_Q>
0

> <i_epik_Tot_abs_Q>
0

> <s_lp_Force_Field>
OPLS_2005

> <r_lp_Energy>
53.9554

> <b_lp_Chiralities_Consistent>
1

> <s_lp_Variant>
BACE_133.smi:1-1

$$$$
BACE_133.smi:1
                    3D
 Structure written by MMmdl.
 90 94  0  0  1  0            999 V2000
   -8.9424   -0.0203   -2.3858 C   0  0  0  0  0  0
   -7.5941    0.6724   -2.2337 C   0  0  0  0  0  0
   -7.3073    1.6543   -2.9171 O   0  0  0  0  0  0
   -6.6294    0.0919   -1.2012 C   0  0  0  0  0  0
   -5.4082    0.8176   -1.2258 O   0  0  0  0  0  0
   -4.4226    0.4519   -0.3353 C   0  0  0  0  0  0
   -4.5367   -0.6216    0.5824 C   0  0  0  0  0  0
   -3.4793   -0.9270    1.4761 C   0  0  0  0  0  0
   -2.3198   -0.1257    1.4557 C   0  0  0  0  0  0
   -2.1549    0.8888    0.4896 C   0  0  0  0  0  0
   -3.2260    1.1917   -0.3744 C   0  0  0  0  0  0
   -0.8723    1.6612    0.3607 C   0  0  0  0  0  0
   -0.9018    2.8890    0.4018 O   0  0  0  0  0  0
    0.2814    1.0018    0.1240 N   0  0  0  0  0  0
    0.5672   -0.4384    0.0602 C   0  0  1  0  0  0
   -0.0818   -1.0908   -1.1930 C   0  0  0  0  0  0
   -0.3436   -2.5872   -1.0620 C   0  0  0  0  0  0
   -1.0218   -3.0977    0.0650 C   0  0  0  0  0  0
   -1.3026   -4.4696    0.1882 C   0  0  0  0  0  0
   -2.0188   -4.9811    1.4275 C   0  0  0  0  0  0
   -3.5338   -5.1766    1.2375 C   0  0  0  0  0  0
   -4.3630   -3.8938    1.0173 C   0  0  0  0  0  0
   -4.5066   -2.9795    2.2577 C   0  0  0  0  0  0
   -3.4808   -1.9929    2.3563 O   0  0  0  0  0  0
   -0.8963   -5.3523   -0.8332 C   0  0  0  0  0  0
   -0.2157   -4.8556   -1.9631 C   0  0  0  0  0  0
    0.0590   -3.4777   -2.0790 C   0  0  0  0  0  0
    2.1046   -0.6517    0.1249 C   0  0  2  0  0  0
    2.4403   -2.0216    0.2205 O   0  0  0  0  0  0
    2.8005    0.0902    1.2864 C   0  0  0  0  0  0
    2.2030   -0.2424    2.5818 N   0  0  0  0  0  0
    2.4766    0.7150    3.6487 C   0  0  0  0  0  0
    3.9030    0.8985    4.1215 C   0  0  0  0  0  0
    2.9082    0.1639    4.9887 C   0  0  0  0  0  0
    1.5235    1.8722    3.6024 C   0  0  0  0  0  0
    1.8624    3.1372    3.0775 C   0  0  0  0  0  0
    0.8979    4.1733    3.0255 C   0  0  0  0  0  0
   -0.4006    3.8901    3.5216 C   0  0  0  0  0  0
   -0.6903    2.6090    4.0312 C   0  0  0  0  0  0
    0.2672    1.6595    4.0504 N   0  3  0  0  0  0
    1.2814    5.5431    2.4364 C   0  0  0  0  0  0
    0.1087    6.5491    2.4448 C   0  0  0  0  0  0
    1.7399    5.3701    0.9730 C   0  0  0  0  0  0
    2.4335    6.1547    3.2599 C   0  0  0  0  0  0
    0.1562   -0.8751    0.9637 H   0  0  0  0  0  0
    2.5448   -0.2907   -0.8055 H   0  0  0  0  0  0
   -9.1114   -0.7204   -1.5676 H   0  0  0  0  0  0
   -8.9782   -0.5709   -3.3259 H   0  0  0  0  0  0
   -9.7477    0.7145   -2.3834 H   0  0  0  0  0  0
   -7.0876    0.1554   -0.2136 H   0  0  0  0  0  0
   -6.4502   -0.9585   -1.4328 H   0  0  0  0  0  0
   -5.4350   -1.2160    0.5910 H   0  0  0  0  0  0
   -1.5294   -0.3402    2.1592 H   0  0  0  0  0  0
   -3.1247    1.9874   -1.0988 H   0  0  0  0  0  0
    1.0910    1.5913   -0.0032 H   0  0  0  0  0  0
   -1.0485   -0.6402   -1.4125 H   0  0  0  0  0  0
    0.5327   -0.8952   -2.0725 H   0  0  0  0  0  0
   -1.3346   -2.4429    0.8569 H   0  0  0  0  0  0
   -1.5680   -5.9339    1.7073 H   0  0  0  0  0  0
   -1.8308   -4.3074    2.2643 H   0  0  0  0  0  0
   -3.6933   -5.8479    0.3929 H   0  0  0  0  0  0
   -3.9312   -5.7026    2.1062 H   0  0  0  0  0  0
   -3.9910   -3.3407    0.1552 H   0  0  0  0  0  0
   -5.3669   -4.2143    0.7373 H   0  0  0  0  0  0
   -5.4889   -2.5078    2.2869 H   0  0  0  0  0  0
   -4.4705   -3.5870    3.1621 H   0  0  0  0  0  0
   -1.1016   -6.4096   -0.7519 H   0  0  0  0  0  0
    0.0954   -5.5334   -2.7444 H   0  0  0  0  0  0
    0.5756   -3.1087   -2.9530 H   0  0  0  0  0  0
    2.0331   -2.3786    0.9949 H   0  0  0  0  0  0
    3.8674   -0.1356    1.2953 H   0  0  0  0  0  0
    2.7266    1.1632    1.1084 H   0  0  0  0  0  0
    2.4557   -1.1834    2.8673 H   0  0  0  0  0  0
    4.6839    0.2964    3.6608 H   0  0  0  0  0  0
    4.2113    1.8899    4.4478 H   0  0  0  0  0  0
    2.5630    0.6723    5.8870 H   0  0  0  0  0  0
    3.0462   -0.9114    5.0855 H   0  0  0  0  0  0
    2.8629    3.3010    2.7058 H   0  0  0  0  0  0
   -1.1897    4.6259    3.5133 H   0  0  0  0  0  0
   -1.6563    2.3156    4.4148 H   0  0  0  0  0  0
    0.4083    7.5082    2.0206 H   0  0  0  0  0  0
   -0.2466    6.7474    3.4568 H   0  0  0  0  0  0
   -0.7343    6.1899    1.8533 H   0  0  0  0  0  0
    0.9520    4.9312    0.3607 H   0  0  0  0  0  0
    2.6167    4.7282    0.8880 H   0  0  0  0  0  0
    2.0027    6.3290    0.5249 H   0  0  0  0  0  0
    2.7137    7.1381    2.8802 H   0  0  0  0  0  0
    3.3307    5.5361    3.2343 H   0  0  0  0  0  0
    2.1492    6.2772    4.3056 H   0  0  0  0  0  0
    0.0323    0.7363    4.4157 H   0  0  0  0  0  0
  1  2  1  0  0  0
  1 47  1  0  0  0
  1 48  1  0  0  0
  1 49  1  0  0  0
  2  3  2  0  0  0
  2  4  1  0  0  0
  4  5  1  0  0  0
  4 50  1  0  0  0
  4 51  1  0  0  0
  5  6  1  0  0  0
  6 11  1  0  0  0
  6  7  2  0  0  0
  7  8  1  0  0  0
  7 52  1  0  0  0
  8 24  1  0  0  0
  8  9  2  0  0  0
  9 10  1  0  0  0
  9 53  1  0  0  0
 10 11  2  0  0  0
 10 12  1  0  0  0
 11 54  1  0  0  0
 12 13  2  0  0  0
 12 14  1  0  0  0
 14 15  1  0  0  0
 14 55  1  0  0  0
 15 45  1  0  0  0
 15 16  1  0  0  0
 15 28  1  0  0  0
 16 17  1  0  0  0
 16 56  1  0  0  0
 16 57  1  0  0  0
 17 27  1  0  0  0
 17 18  2  0  0  0
 18 19  1  0  0  0
 18 58  1  0  0  0
 19 20  1  0  0  0
 19 25  2  0  0  0
 20 21  1  0  0  0
 20 59  1  0  0  0
 20 60  1  0  0  0
 21 22  1  0  0  0
 21 61  1  0  0  0
 21 62  1  0  0  0
 22 23  1  0  0  0
 22 63  1  0  0  0
 22 64  1  0  0  0
 23 24  1  0  0  0
 23 65  1  0  0  0
 23 66  1  0  0  0
 25 26  1  0  0  0
 25 67  1  0  0  0
 26 27  2  0  0  0
 26 68  1  0  0  0
 27 69  1  0  0  0
 28 46  1  0  0  0
 28 29  1  0  0  0
 28 30  1  0  0  0
 29 70  1  0  0  0
 30 31  1  0  0  0
 30 71  1  0  0  0
 30 72  1  0  0  0
 31 32  1  0  0  0
 31 73  1  0  0  0
 32 34  1  0  0  0
 32 33  1  0  0  0
 32 35  1  0  0  0
 33 34  1  0  0  0
 33 74  1  0  0  0
 33 75  1  0  0  0
 34 76  1  0  0  0
 34 77  1  0  0  0
 35 40  1  0  0  0
 35 36  2  0  0  0
 36 37  1  0  0  0
 36 78  1  0  0  0
 37 38  2  0  0  0
 37 41  1  0  0  0
 38 39  1  0  0  0
 38 79  1  0  0  0
 39 40  2  0  0  0
 39 80  1  0  0  0
 40 90  1  0  0  0
 41 42  1  0  0  0
 41 43  1  0  0  0
 41 44  1  0  0  0
 42 81  1  0  0  0
 42 82  1  0  0  0
 42 83  1  0  0  0
 43 84  1  0  0  0
 43 85  1  0  0  0
 43 86  1  0  0  0
 44 87  1  0  0  0
 44 88  1  0  0  0
 44 89  1  0  0  0
M  CHG  1  40   1
M  END
> <s_m_source_file>
BACE_133.smi

> <i_m_source_file_index>
1

> <i_lp_mmshare_version>
42013

> <i_f3d_flags>
0

> <s_epik_input>
W0NIM11DKD1PKVtDSDJdT2MoW2NIXWMxMilbY0hdYyhbY0hdMSlDKD1PKVtOSF1bQ0BASF0oW0NIMl1jM1tjSF1jKFtjSF1bY0hdW2NIXTMpW0NIMl1bQ0gyXVtDSDJdW0NIMl1PMilbQ0BIXShbT0hdKVtDSDJdW05IXUM0KFtDSDJdW0NIMl00KWM1W2NIXWMoW2NIXVtjSF1uNSlDKFtDSDNdKShbQ0gzXSlbQ0gzXQ==

> <s_epik_cmdline>
J2VwaWtfcHl0aG9uJywgJy1waCcsICc3LjAnLCAnLXRuJywgJzgnLCAnLW1hJywgJzIwMCcsICctaW1hZScsICc8aW5maWxlLm1hZT4nLCAnLW9tYWUnLCAnPG91dGZpbGUubWFlPic=

> <r_epik_Ionization_Penalty>
2.3782

> <r_epik_Ionization_Penalty_Charging>
2.37818

> <r_epik_Ionization_Penalty_Neutral>
2.79697e-05

> <r_epik_State_Penalty>
1.51381

> <r_epik_Charging_Adjusted_Penalty>
3.89199

> <i_epik_Tot_Q>
1

> <i_epik_Tot_abs_Q>
1

> <s_lp_Force_Field>
OPLS_2005

> <r_lp_Energy>
58.8467

> <b_lp_Chiralities_Consistent>
1

> <s_lp_Variant>
BACE_133.smi:1-2

$$$$
BACE_133.smi:1
                    3D
 Structure written by MMmdl.
 90 94  0  0  1  0            999 V2000
   -1.0202    2.3738    9.5166 C   0  0  0  0  0  0
   -0.7158    2.6726    8.0541 C   0  0  0  0  0  0
    0.0172    3.6092    7.7393 O   0  0  0  0  0  0
   -1.3486    1.7536    7.0105 C   0  0  0  0  0  0
   -0.9954    2.1973    5.7072 O   0  0  0  0  0  0
   -1.4399    1.4570    4.6345 C   0  0  0  0  0  0
   -2.1833    0.2586    4.7491 C   0  0  0  0  0  0
   -2.6195   -0.4439    3.6080 C   0  0  0  0  0  0
   -2.3111    0.0707    2.3236 C   0  0  0  0  0  0
   -1.5641    1.2652    2.1923 C   0  0  0  0  0  0
   -1.1387    1.9465    3.3511 C   0  0  0  0  0  0
   -1.3051    1.8934    0.8510 C   0  0  0  0  0  0
   -1.6776    3.0468    0.6482 O   0  0  0  0  0  0
   -0.6256    1.2155   -0.0938 N   0  0  0  0  0  0
   -0.0121   -0.1128   -0.0511 C   0  0  1  0  0  0
   -0.3894   -0.8343   -1.3693 C   0  0  0  0  0  0
   -0.5150   -2.3367   -1.2061 C   0  0  0  0  0  0
   -1.5978   -2.8557   -0.4710 C   0  0  0  0  0  0
   -1.7120   -4.2403   -0.2479 C   0  0  0  0  0  0
   -2.8541   -4.7741    0.5952 C   0  0  0  0  0  0
   -2.5182   -4.8335    2.0969 C   0  0  0  0  0  0
   -2.2750   -3.4732    2.7840 C   0  0  0  0  0  0
   -3.5215   -2.5714    2.8421 C   0  0  0  0  0  0
   -3.3709   -1.5751    3.8476 O   0  0  0  0  0  0
   -0.7535   -5.1164   -0.7989 C   0  0  0  0  0  0
    0.3149   -4.6042   -1.5617 C   0  0  0  0  0  0
    0.4374   -3.2151   -1.7631 C   0  0  0  0  0  0
    1.5212    0.0054    0.1619 C   0  0  2  0  0  0
    2.0680   -1.2947    0.2760 O   0  0  0  0  0  0
    1.9255    0.7718    1.4380 C   0  0  0  0  0  0
    3.3933    0.9226    1.5270 N   0  3  0  0  0  0
    3.8809    1.6240    2.7331 C   0  0  0  0  0  0
    3.9780    3.1272    2.5886 C   0  0  0  0  0  0
    5.2257    2.2796    2.5086 C   0  0  0  0  0  0
    3.5806    0.9318    4.0278 C   0  0  0  0  0  0
    4.3580   -0.1574    4.4741 C   0  0  0  0  0  0
    4.0145   -0.8023    5.6875 C   0  0  0  0  0  0
    2.8980   -0.2979    6.3933 C   0  0  0  0  0  0
    2.1870    0.7952    5.8644 C   0  0  0  0  0  0
    2.5074    1.3965    4.7017 N   0  0  0  0  0  0
    4.7954   -2.0067    6.2415 C   0  0  0  0  0  0
    5.3670   -1.6581    7.6309 C   0  0  0  0  0  0
    5.9764   -2.4224    5.3360 C   0  0  0  0  0  0
    3.8498   -3.2191    6.3678 C   0  0  0  0  0  0
   -0.4231   -0.6785    0.7811 H   0  0  0  0  0  0
    1.9706    0.4920   -0.7050 H   0  0  0  0  0  0
   -1.6155    1.4653    9.6104 H   0  0  0  0  0  0
   -1.5754    3.1992    9.9623 H   0  0  0  0  0  0
   -0.0934    2.2385   10.0743 H   0  0  0  0  0  0
   -0.9895    0.7373    7.1768 H   0  0  0  0  0  0
   -2.4323    1.7618    7.1314 H   0  0  0  0  0  0
   -2.4431   -0.1454    5.7159 H   0  0  0  0  0  0
   -2.6673   -0.4153    1.4294 H   0  0  0  0  0  0
   -0.5861    2.8711    3.2604 H   0  0  0  0  0  0
   -0.4978    1.7088   -0.9658 H   0  0  0  0  0  0
   -1.3606   -0.4861   -1.7258 H   0  0  0  0  0  0
    0.3196   -0.5935   -2.1626 H   0  0  0  0  0  0
   -2.3310   -2.1831   -0.0518 H   0  0  0  0  0  0
   -3.7433   -4.1655    0.4281 H   0  0  0  0  0  0
   -3.1082   -5.7743    0.2423 H   0  0  0  0  0  0
   -3.3285   -5.3465    2.6162 H   0  0  0  0  0  0
   -1.6370   -5.4614    2.2347 H   0  0  0  0  0  0
   -1.9565   -3.6773    3.8069 H   0  0  0  0  0  0
   -1.4437   -2.9426    2.3205 H   0  0  0  0  0  0
   -3.7884   -2.1636    1.8687 H   0  0  0  0  0  0
   -4.3771   -3.1752    3.1453 H   0  0  0  0  0  0
   -0.8329   -6.1814   -0.6361 H   0  0  0  0  0  0
    1.0469   -5.2771   -1.9837 H   0  0  0  0  0  0
    1.2684   -2.8275   -2.3341 H   0  0  0  0  0  0
    1.6036   -1.7614    0.9548 H   0  0  0  0  0  0
    1.4977    1.7740    1.4431 H   0  0  0  0  0  0
    1.5399    0.2542    2.3173 H   0  0  0  0  0  0
    3.8044    0.0000    1.5098 H   0  0  0  0  0  0
    3.6314    3.5819    1.6624 H   0  0  0  0  0  0
    3.8452    3.7334    3.4827 H   0  0  0  0  0  0
    5.9128    2.3408    3.3505 H   0  0  0  0  0  0
    5.6946    2.1886    1.5306 H   0  0  0  0  0  0
    5.1941   -0.4789    3.8725 H   0  0  0  0  0  0
    2.5819   -0.7361    7.3283 H   0  0  0  0  0  0
    1.3361    1.1949    6.3914 H   0  0  0  0  0  0
    5.9373   -2.4904    8.0449 H   0  0  0  0  0  0
    4.5827   -1.4199    8.3497 H   0  0  0  0  0  0
    6.0354   -0.7979    7.5771 H   0  0  0  0  0  0
    6.7030   -1.6166    5.2257 H   0  0  0  0  0  0
    5.6390   -2.7136    4.3405 H   0  0  0  0  0  0
    6.5109   -3.2770    5.7526 H   0  0  0  0  0  0
    4.3786   -4.0980    6.7378 H   0  0  0  0  0  0
    3.4145   -3.4820    5.4029 H   0  0  0  0  0  0
    3.0272   -3.0287    7.0574 H   0  0  0  0  0  0
    3.7108    1.4302    0.7142 H   0  0  0  0  0  0
  1  2  1  0  0  0
  1 47  1  0  0  0
  1 48  1  0  0  0
  1 49  1  0  0  0
  2  3  2  0  0  0
  2  4  1  0  0  0
  4  5  1  0  0  0
  4 50  1  0  0  0
  4 51  1  0  0  0
  5  6  1  0  0  0
  6 11  1  0  0  0
  6  7  2  0  0  0
  7  8  1  0  0  0
  7 52  1  0  0  0
  8 24  1  0  0  0
  8  9  2  0  0  0
  9 10  1  0  0  0
  9 53  1  0  0  0
 10 11  2  0  0  0
 10 12  1  0  0  0
 11 54  1  0  0  0
 12 13  2  0  0  0
 12 14  1  0  0  0
 14 15  1  0  0  0
 14 55  1  0  0  0
 15 45  1  0  0  0
 15 16  1  0  0  0
 15 28  1  0  0  0
 16 17  1  0  0  0
 16 56  1  0  0  0
 16 57  1  0  0  0
 17 27  1  0  0  0
 17 18  2  0  0  0
 18 19  1  0  0  0
 18 58  1  0  0  0
 19 20  1  0  0  0
 19 25  2  0  0  0
 20 21  1  0  0  0
 20 59  1  0  0  0
 20 60  1  0  0  0
 21 22  1  0  0  0
 21 61  1  0  0  0
 21 62  1  0  0  0
 22 23  1  0  0  0
 22 63  1  0  0  0
 22 64  1  0  0  0
 23 24  1  0  0  0
 23 65  1  0  0  0
 23 66  1  0  0  0
 25 26  1  0  0  0
 25 67  1  0  0  0
 26 27  2  0  0  0
 26 68  1  0  0  0
 27 69  1  0  0  0
 28 46  1  0  0  0
 28 29  1  0  0  0
 28 30  1  0  0  0
 29 70  1  0  0  0
 30 31  1  0  0  0
 30 71  1  0  0  0
 30 72  1  0  0  0
 31 32  1  0  0  0
 31 73  1  0  0  0
 31 90  1  0  0  0
 32 34  1  0  0  0
 32 33  1  0  0  0
 32 35  1  0  0  0
 33 34  1  0  0  0
 33 74  1  0  0  0
 33 75  1  0  0  0
 34 76  1  0  0  0
 34 77  1  0  0  0
 35 40  1  0  0  0
 35 36  2  0  0  0
 36 37  1  0  0  0
 36 78  1  0  0  0
 37 38  2  0  0  0
 37 41  1  0  0  0
 38 39  1  0  0  0
 38 79  1  0  0  0
 39 40  2  0  0  0
 39 80  1  0  0  0
 41 42  1  0  0  0
 41 43  1  0  0  0
 41 44  1  0  0  0
 42 81  1  0  0  0
 42 82  1  0  0  0
 42 83  1  0  0  0
 43 84  1  0  0  0
 43 85  1  0  0  0
 43 86  1  0  0  0
 44 87  1  0  0  0
 44 88  1  0  0  0
 44 89  1  0  0  0
M  CHG  1  31   1
M  END
> <s_m_source_file>
BACE_133.smi

> <i_m_source_file_index>
1

> <i_lp_mmshare_version>
42013

> <i_f3d_flags>
0

> <s_epik_input>
W0NIM11DKD1PKVtDSDJdT2MoW2NIXWMxMilbY0hdYyhbY0hdMSlDKD1PKVtOSF1bQ0BASF0oW0NIMl1jM1tjSF1jKFtjSF1bY0hdW2NIXTMpW0NIMl1bQ0gyXVtDSDJdW0NIMl1PMilbQ0BIXShbT0hdKVtDSDJdW05IXUM0KFtDSDJdW0NIMl00KWM1W2NIXWMoW2NIXVtjSF1uNSlDKFtDSDNdKShbQ0gzXSlbQ0gzXQ==

> <s_epik_cmdline>
J2VwaWtfcHl0aG9uJywgJy1waCcsICc3LjAnLCAnLXRuJywgJzgnLCAnLW1hJywgJzIwMCcsICctaW1hZScsICc8aW5maWxlLm1hZT4nLCAnLW9tYWUnLCAnPG91dGZpbGUubWFlPic=

> <r_lp_tautomer_probability>
1

> <r_epik_Ionization_Penalty>
0.789027

> <r_epik_Ionization_Penalty_Charging>
0.787619

> <r_epik_Ionization_Penalty_Neutral>
0.00140771

> <r_epik_State_Penalty>
1.81585

> <r_epik_Charging_Adjusted_Penalty>
2.60347

> <i_epik_Tot_Q>
1

> <i_epik_Tot_abs_Q>
1

> <s_lp_Force_Field>
OPLS_2005

> <r_lp_Energy>
41.1075

> <b_lp_Chiralities_Consistent>
1

> <s_lp_Variant>
BACE_133.smi:1-3

$$$$
