BACE_30.smi:1
                    3D
 Structure written by MMmdl.
 90 91  0  0  1  0            999 V2000
   -1.5494    1.8627   -0.4323 C   0  0  0  0  0  0
   -0.0357    1.8011   -0.6753 C   0  0  2  0  0  0
    0.5501    0.6265    0.0072 N   0  3  0  0  0  0
    1.9511    0.3253   -0.3581 C   0  0  0  0  0  0
    2.4485   -0.9538    0.3456 C   0  0  1  0  0  0
    1.7556   -2.0704   -0.1751 O   0  0  0  0  0  0
    3.9797   -1.2193    0.2492 C   0  0  2  0  0  0
    4.7823   -0.5344    1.3813 C   0  0  0  0  0  0
    4.6249   -1.1397    2.7961 C   0  0  2  0  0  0
    5.2478   -0.2128    3.8548 C   0  0  0  0  0  0
    5.1321   -2.5964    2.9400 C   0  0  0  0  0  0
    6.6263   -2.8448    2.6364 C   0  0  0  0  0  0
    6.9041   -3.3667    1.2142 C   0  0  0  0  0  0
    8.3768   -3.7554    0.9778 C   0  0  0  0  0  0
    9.3827   -2.5844    0.9758 C   0  0  0  0  0  0
    9.1561   -1.5224   -0.1163 C   0  0  0  0  0  0
    9.3534   -2.0532   -1.5510 C   0  0  0  0  0  0
    9.1134   -1.0106   -2.6641 C   0  0  0  0  0  0
    7.6631   -0.5005   -2.6919 C   0  0  0  0  0  0
    7.4146    0.5160   -2.0401 O   0  0  0  0  0  0
    6.7083   -1.1621   -3.4021 N   0  0  0  0  0  0
    6.9951   -2.3830   -4.1743 C   0  0  0  0  0  0
    5.2989   -0.7037   -3.3297 C   0  0  1  0  0  0
    4.5262   -0.9612   -4.6457 C   0  0  0  0  0  0
    4.6023   -1.4243   -2.1614 C   0  0  0  0  0  0
    4.1691   -2.5701   -2.2868 O   0  0  0  0  0  0
    4.5260   -0.7307   -1.0157 N   0  0  0  0  0  0
    0.6304    3.0808   -0.2365 C   0  0  0  0  0  0
    1.0601    3.4611    1.0661 C   0  0  0  0  0  0
    1.5507    4.7238    0.8903 C   0  0  0  0  0  0
    2.1490    5.7221    1.8311 C   0  0  0  0  0  0
    1.2199    6.8906    2.2557 C   0  0  0  0  0  0
    1.0609    7.8994    1.1006 C   0  0  0  0  0  0
    1.8583    7.6158    3.4560 C   0  0  0  0  0  0
   -0.1739    6.3761    2.6728 C   0  0  0  0  0  0
    1.4316    5.0937   -0.4105 O   0  0  0  0  0  0
    0.8358    4.0448   -1.1183 N   0  0  0  0  0  0
    0.1163    1.6590   -1.7468 H   0  0  0  0  0  0
    2.1614   -0.9002    1.3942 H   0  0  0  0  0  0
    4.1687   -2.2914    0.3165 H   0  0  0  0  0  0
    3.5628   -1.1684    3.0348 H   0  0  0  0  0  0
    5.2495    0.3743   -3.1620 H   0  0  0  0  0  0
   -1.9989    2.6965   -0.9726 H   0  0  0  0  0  0
   -1.7776    1.9928    0.6264 H   0  0  0  0  0  0
   -2.0406    0.9495   -0.7698 H   0  0  0  0  0  0
    0.4943    0.7695    1.0050 H   0  0  0  0  0  0
    2.0277    0.2249   -1.4418 H   0  0  0  0  0  0
    2.5805    1.1671   -0.0683 H   0  0  0  0  0  0
    2.0713   -2.8503    0.2565 H   0  0  0  0  0  0
    5.8435   -0.5311    1.1289 H   0  0  0  0  0  0
    4.4987    0.5185    1.4126 H   0  0  0  0  0  0
    6.3096   -0.0442    3.6763 H   0  0  0  0  0  0
    5.1396   -0.6279    4.8573 H   0  0  0  0  0  0
    4.7600    0.7624    3.8536 H   0  0  0  0  0  0
    4.9494   -2.9019    3.9713 H   0  0  0  0  0  0
    4.5160   -3.2722    2.3468 H   0  0  0  0  0  0
    7.2140   -1.9502    2.8351 H   0  0  0  0  0  0
    6.9908   -3.5942    3.3400 H   0  0  0  0  0  0
    6.2920   -4.2535    1.0463 H   0  0  0  0  0  0
    6.5821   -2.6466    0.4645 H   0  0  0  0  0  0
    8.6774   -4.4723    1.7428 H   0  0  0  0  0  0
    8.4513   -4.2994    0.0367 H   0  0  0  0  0  0
    9.3693   -2.0966    1.9504 H   0  0  0  0  0  0
   10.3899   -2.9880    0.8682 H   0  0  0  0  0  0
    8.1634   -1.0916    0.0055 H   0  0  0  0  0  0
    9.8532   -0.6999    0.0477 H   0  0  0  0  0  0
   10.3686   -2.4390   -1.6474 H   0  0  0  0  0  0
    8.6966   -2.9057   -1.7157 H   0  0  0  0  0  0
    9.7731   -0.1578   -2.4981 H   0  0  0  0  0  0
    9.4058   -1.4045   -3.6373 H   0  0  0  0  0  0
    7.8352   -2.9624   -3.7980 H   0  0  0  0  0  0
    7.2046   -2.1268   -5.2131 H   0  0  0  0  0  0
    6.1554   -3.0764   -4.1588 H   0  0  0  0  0  0
    3.5382   -0.5016   -4.6026 H   0  0  0  0  0  0
    4.3703   -2.0165   -4.8689 H   0  0  0  0  0  0
    5.0468   -0.5156   -5.4938 H   0  0  0  0  0  0
    4.9256    0.1971   -1.0073 H   0  0  0  0  0  0
    1.0101    2.9018    1.9884 H   0  0  0  0  0  0
    2.4660    5.1820    2.7242 H   0  0  0  0  0  0
    3.0677    6.1190    1.3972 H   0  0  0  0  0  0
    0.4634    8.7591    1.4061 H   0  0  0  0  0  0
    0.5635    7.4543    0.2390 H   0  0  0  0  0  0
    2.0273    8.2771    0.7647 H   0  0  0  0  0  0
    2.8479    8.0007    3.2064 H   0  0  0  0  0  0
    1.9718    6.9491    4.3116 H   0  0  0  0  0  0
    1.2505    8.4612    3.7806 H   0  0  0  0  0  0
   -0.7993    7.1879    3.0460 H   0  0  0  0  0  0
   -0.0994    5.6301    3.4648 H   0  0  0  0  0  0
   -0.7077    5.9208    1.8380 H   0  0  0  0  0  0
   -0.0045   -0.1828   -0.2331 H   0  0  0  0  0  0
  1  2  1  0  0  0
  1 43  1  0  0  0
  1 44  1  0  0  0
  1 45  1  0  0  0
  2 38  1  0  0  0
  2  3  1  0  0  0
  2 28  1  0  0  0
  3  4  1  0  0  0
  3 46  1  0  0  0
  3 90  1  0  0  0
  4  5  1  0  0  0
  4 47  1  0  0  0
  4 48  1  0  0  0
  5 39  1  0  0  0
  5  6  1  0  0  0
  5  7  1  0  0  0
  6 49  1  0  0  0
  7 40  1  0  0  0
  7 27  1  0  0  0
  7  8  1  0  0  0
  8  9  1  0  0  0
  8 50  1  0  0  0
  8 51  1  0  0  0
  9 41  1  0  0  0
  9 10  1  0  0  0
  9 11  1  0  0  0
 10 52  1  0  0  0
 10 53  1  0  0  0
 10 54  1  0  0  0
 11 12  1  0  0  0
 11 55  1  0  0  0
 11 56  1  0  0  0
 12 13  1  0  0  0
 12 57  1  0  0  0
 12 58  1  0  0  0
 13 14  1  0  0  0
 13 59  1  0  0  0
 13 60  1  0  0  0
 14 15  1  0  0  0
 14 61  1  0  0  0
 14 62  1  0  0  0
 15 16  1  0  0  0
 15 63  1  0  0  0
 15 64  1  0  0  0
 16 17  1  0  0  0
 16 65  1  0  0  0
 16 66  1  0  0  0
 17 18  1  0  0  0
 17 67  1  0  0  0
 17 68  1  0  0  0
 18 19  1  0  0  0
 18 69  1  0  0  0
 18 70  1  0  0  0
 19 20  2  0  0  0
 19 21  1  0  0  0
 21 22  1  0  0  0
 21 23  1  0  0  0
 22 71  1  0  0  0
 22 72  1  0  0  0
 22 73  1  0  0  0
 23 42  1  0  0  0
 23 24  1  0  0  0
 23 25  1  0  0  0
 24 74  1  0  0  0
 24 75  1  0  0  0
 24 76  1  0  0  0
 25 26  2  0  0  0
 25 27  1  0  0  0
 27 77  1  0  0  0
 28 37  2  0  0  0
 28 29  1  0  0  0
 29 30  2  0  0  0
 29 78  1  0  0  0
 30 31  1  0  0  0
 30 36  1  0  0  0
 31 32  1  0  0  0
 31 79  1  0  0  0
 31 80  1  0  0  0
 32 33  1  0  0  0
 32 34  1  0  0  0
 32 35  1  0  0  0
 33 81  1  0  0  0
 33 82  1  0  0  0
 33 83  1  0  0  0
 34 84  1  0  0  0
 34 85  1  0  0  0
 34 86  1  0  0  0
 35 87  1  0  0  0
 35 88  1  0  0  0
 35 89  1  0  0  0
 36 37  1  0  0  0
M  CHG  1   3   1
M  END
> <s_m_source_file>
BACE_30.smi

> <i_m_source_file_index>
1

> <i_lp_mmshare_version>
42013

> <i_f3d_flags>
0

> <s_epik_input>
W0NIM11DKFtDSDNdKShbQ0gzXSlbQ0gyXWMob24xKVtjSF1jMVtDQEhdKFtDSDNdKVtOSF1bQ0gyXVtDQEBIXShbT0hdKVtDQEBIXTJbQ0gyXVtDQEhdKFtDSDNdKVtDSDJdW0NIMl1bQ0gyXVtDSDJdW0NIMl1bQ0gyXVtDSDJdW0NIMl1DKD1PKU4oW0NIM10pW0NAQEhdKFtDSDNdKUMoPU8pW05IXTI=

> <s_epik_cmdline>
J2VwaWtfcHl0aG9uJywgJy1waCcsICc3LjAnLCAnLXRuJywgJzgnLCAnLW1hJywgJzIwMCcsICctaW1hZScsICc8aW5maWxlLm1hZT4nLCAnLW9tYWUnLCAnPG91dGZpbGUubWFlPic=

> <r_epik_Ionization_Penalty>
0.389779

> <r_epik_Ionization_Penalty_Charging>
0.389779

> <r_epik_Ionization_Penalty_Neutral>
6.53513e-07

> <r_epik_State_Penalty>
0.388404

> <r_epik_Charging_Adjusted_Penalty>
0.778183

> <i_epik_Tot_Q>
1

> <i_epik_Tot_abs_Q>
1

> <s_lp_Force_Field>
OPLS_2005

> <r_lp_Energy>
33.3052

> <b_lp_Chiralities_Consistent>
1

> <s_lp_Variant>
BACE_30.smi:1-1

$$$$
BACE_30.smi:1
                    3D
 Structure written by MMmdl.
 89 90  0  0  1  0            999 V2000
   -0.1485    2.0869    1.7346 C   0  0  0  0  0  0
    0.3603    1.6733    0.3464 C   0  0  2  0  0  0
    1.0250    0.3698    0.4260 N   0  0  0  0  0  0
    1.3581   -0.2115   -0.8748 C   0  0  0  0  0  0
    1.8920   -1.6582   -0.7746 C   0  0  1  0  0  0
    1.7367   -2.1699   -2.0816 O   0  0  0  0  0  0
    3.3873   -1.7979   -0.3622 C   0  0  2  0  0  0
    3.8612   -3.2602   -0.1355 C   0  0  0  0  0  0
    4.0300   -4.1725   -1.3729 C   0  0  2  0  0  0
    4.3848   -5.6070   -0.9428 C   0  0  0  0  0  0
    4.9950   -3.6393   -2.4627 C   0  0  0  0  0  0
    6.4858   -3.4979   -2.0824 C   0  0  0  0  0  0
    6.8787   -2.1267   -1.5023 C   0  0  0  0  0  0
    8.3989   -1.9467   -1.3195 C   0  0  0  0  0  0
    9.0634   -2.8826   -0.2856 C   0  0  0  0  0  0
    8.5460   -2.7389    1.1577 C   0  0  0  0  0  0
    8.9305   -1.4025    1.8259 C   0  0  0  0  0  0
    8.2747   -1.1649    3.2030 C   0  0  0  0  0  0
    6.7516   -0.9854    3.0937 C   0  0  0  0  0  0
    6.0568   -1.9875    3.2741 O   0  0  0  0  0  0
    6.2139    0.2283    2.7887 N   0  0  0  0  0  0
    7.0262    1.4453    2.6114 C   0  0  0  0  0  0
    4.7521    0.3263    2.5419 C   0  0  1  0  0  0
    4.1892    1.7393    2.8136 C   0  0  0  0  0  0
    4.4702   -0.0578    1.0771 C   0  0  0  0  0  0
    5.0145    0.5464    0.1518 O   0  0  0  0  0  0
    3.6416   -1.0978    0.8965 N   0  0  0  0  0  0
    1.2431    2.7485   -0.2411 C   0  0  0  0  0  0
    0.9497    3.6172   -1.3275 C   0  0  0  0  0  0
    2.0763    4.3799   -1.4492 C   0  0  0  0  0  0
    2.4550    5.4923   -2.3760 C   0  0  0  0  0  0
    2.3035    6.9255   -1.8036 C   0  0  0  0  0  0
    0.8576    7.1711   -1.3257 C   0  0  0  0  0  0
    2.6363    7.9365   -2.9176 C   0  0  0  0  0  0
    3.2723    7.1537   -0.6257 C   0  0  0  0  0  0
    2.9922    4.0133   -0.5165 O   0  0  0  0  0  0
    2.4529    2.9738    0.2473 N   0  0  0  0  0  0
   -0.5201    1.5688   -0.2889 H   0  0  0  0  0  0
    1.2570   -2.2414   -0.1064 H   0  0  0  0  0  0
    3.9989   -1.3455   -1.1430 H   0  0  0  0  0  0
    3.0559   -4.2652   -1.8490 H   0  0  0  0  0  0
    4.2126   -0.3502    3.2082 H   0  0  0  0  0  0
   -0.6983    3.0271    1.6841 H   0  0  0  0  0  0
    0.6732    2.2213    2.4389 H   0  0  0  0  0  0
   -0.8209    1.3350    2.1483 H   0  0  0  0  0  0
    0.4592   -0.2753    0.9675 H   0  0  0  0  0  0
    0.4543   -0.2151   -1.4866 H   0  0  0  0  0  0
    2.0796    0.4132   -1.4028 H   0  0  0  0  0  0
    2.2856   -1.6692   -2.6656 H   0  0  0  0  0  0
    4.8125   -3.2515    0.3979 H   0  0  0  0  0  0
    3.1636   -3.7377    0.5541 H   0  0  0  0  0  0
    5.3087   -5.6442   -0.3660 H   0  0  0  0  0  0
    4.5021   -6.2621   -1.8064 H   0  0  0  0  0  0
    3.5977   -6.0310   -0.3186 H   0  0  0  0  0  0
    4.9400   -4.3356   -3.3005 H   0  0  0  0  0  0
    4.6266   -2.6981   -2.8706 H   0  0  0  0  0  0
    6.7882   -4.2975   -1.4089 H   0  0  0  0  0  0
    7.0714   -3.6475   -2.9902 H   0  0  0  0  0  0
    6.5259   -1.3480   -2.1791 H   0  0  0  0  0  0
    6.3696   -1.9426   -0.5595 H   0  0  0  0  0  0
    8.8859   -2.0930   -2.2840 H   0  0  0  0  0  0
    8.5996   -0.9090   -1.0548 H   0  0  0  0  0  0
    8.9354   -3.9170   -0.6045 H   0  0  0  0  0  0
   10.1400   -2.7097   -0.2932 H   0  0  0  0  0  0
    7.4676   -2.8870    1.1662 H   0  0  0  0  0  0
    8.9528   -3.5527    1.7589 H   0  0  0  0  0  0
   10.0142   -1.3633    1.9381 H   0  0  0  0  0  0
    8.6745   -0.5755    1.1655 H   0  0  0  0  0  0
    8.4781   -2.0217    3.8467 H   0  0  0  0  0  0
    8.7288   -0.3177    3.7161 H   0  0  0  0  0  0
    8.0755    1.2673    2.3888 H   0  0  0  0  0  0
    6.9808    2.0592    3.5113 H   0  0  0  0  0  0
    6.6670    2.0425    1.7744 H   0  0  0  0  0  0
    3.1008    1.7300    2.7552 H   0  0  0  0  0  0
    4.5375    2.4907    2.1050 H   0  0  0  0  0  0
    4.4483    2.0776    3.8170 H   0  0  0  0  0  0
    3.2300   -1.5067    1.7228 H   0  0  0  0  0  0
    0.0521    3.6727   -1.9248 H   0  0  0  0  0  0
    3.4842    5.3393   -2.7037 H   0  0  0  0  0  0
    1.8494    5.4028   -3.2787 H   0  0  0  0  0  0
    0.7223    8.1981   -0.9845 H   0  0  0  0  0  0
    0.5885    6.5188   -0.4946 H   0  0  0  0  0  0
    0.1403    6.9952   -2.1281 H   0  0  0  0  0  0
    1.9697    7.8211   -3.7732 H   0  0  0  0  0  0
    3.6583    7.8086   -3.2773 H   0  0  0  0  0  0
    2.5402    8.9641   -2.5648 H   0  0  0  0  0  0
    3.2301    8.1850   -0.2732 H   0  0  0  0  0  0
    4.3037    6.9481   -0.9141 H   0  0  0  0  0  0
    3.0336    6.5159    0.2253 H   0  0  0  0  0  0
  1  2  1  0  0  0
  1 43  1  0  0  0
  1 44  1  0  0  0
  1 45  1  0  0  0
  2 38  1  0  0  0
  2  3  1  0  0  0
  2 28  1  0  0  0
  3  4  1  0  0  0
  3 46  1  0  0  0
  4  5  1  0  0  0
  4 47  1  0  0  0
  4 48  1  0  0  0
  5 39  1  0  0  0
  5  6  1  0  0  0
  5  7  1  0  0  0
  6 49  1  0  0  0
  7 40  1  0  0  0
  7 27  1  0  0  0
  7  8  1  0  0  0
  8  9  1  0  0  0
  8 50  1  0  0  0
  8 51  1  0  0  0
  9 41  1  0  0  0
  9 10  1  0  0  0
  9 11  1  0  0  0
 10 52  1  0  0  0
 10 53  1  0  0  0
 10 54  1  0  0  0
 11 12  1  0  0  0
 11 55  1  0  0  0
 11 56  1  0  0  0
 12 13  1  0  0  0
 12 57  1  0  0  0
 12 58  1  0  0  0
 13 14  1  0  0  0
 13 59  1  0  0  0
 13 60  1  0  0  0
 14 15  1  0  0  0
 14 61  1  0  0  0
 14 62  1  0  0  0
 15 16  1  0  0  0
 15 63  1  0  0  0
 15 64  1  0  0  0
 16 17  1  0  0  0
 16 65  1  0  0  0
 16 66  1  0  0  0
 17 18  1  0  0  0
 17 67  1  0  0  0
 17 68  1  0  0  0
 18 19  1  0  0  0
 18 69  1  0  0  0
 18 70  1  0  0  0
 19 20  2  0  0  0
 19 21  1  0  0  0
 21 22  1  0  0  0
 21 23  1  0  0  0
 22 71  1  0  0  0
 22 72  1  0  0  0
 22 73  1  0  0  0
 23 42  1  0  0  0
 23 24  1  0  0  0
 23 25  1  0  0  0
 24 74  1  0  0  0
 24 75  1  0  0  0
 24 76  1  0  0  0
 25 26  2  0  0  0
 25 27  1  0  0  0
 27 77  1  0  0  0
 28 37  2  0  0  0
 28 29  1  0  0  0
 29 30  2  0  0  0
 29 78  1  0  0  0
 30 31  1  0  0  0
 30 36  1  0  0  0
 31 32  1  0  0  0
 31 79  1  0  0  0
 31 80  1  0  0  0
 32 33  1  0  0  0
 32 34  1  0  0  0
 32 35  1  0  0  0
 33 81  1  0  0  0
 33 82  1  0  0  0
 33 83  1  0  0  0
 34 84  1  0  0  0
 34 85  1  0  0  0
 34 86  1  0  0  0
 35 87  1  0  0  0
 35 88  1  0  0  0
 35 89  1  0  0  0
 36 37  1  0  0  0
M  END
> <s_m_source_file>
BACE_30.smi

> <i_m_source_file_index>
1

> <i_lp_mmshare_version>
42013

> <i_f3d_flags>
0

> <s_epik_input>
W0NIM11DKFtDSDNdKShbQ0gzXSlbQ0gyXWMob24xKVtjSF1jMVtDQEhdKFtDSDNdKVtOSF1bQ0gyXVtDQEBIXShbT0hdKVtDQEBIXTJbQ0gyXVtDQEhdKFtDSDNdKVtDSDJdW0NIMl1bQ0gyXVtDSDJdW0NIMl1bQ0gyXVtDSDJdW0NIMl1DKD1PKU4oW0NIM10pW0NAQEhdKFtDSDNdKUMoPU8pW05IXTI=

> <s_epik_cmdline>
J2VwaWtfcHl0aG9uJywgJy1waCcsICc3LjAnLCAnLXRuJywgJzgnLCAnLW1hJywgJzIwMCcsICctaW1hZScsICc8aW5maWxlLm1hZT4nLCAnLW9tYWUnLCAnPG91dGZpbGUubWFlPic=

> <r_epik_Ionization_Penalty>
0.432346

> <r_epik_Ionization_Penalty_Charging>
0

> <r_epik_Ionization_Penalty_Neutral>
0.432346

> <r_epik_State_Penalty>
0.433826

> <r_epik_Charging_Adjusted_Penalty>
0.433826

> <i_epik_Tot_Q>
0

> <i_epik_Tot_abs_Q>
0

> <s_lp_Force_Field>
OPLS_2005

> <r_lp_Energy>
36.7983

> <b_lp_Chiralities_Consistent>
1

> <s_lp_Variant>
BACE_30.smi:1-2

$$$$
