BACE_80.smi:1
                    3D
 Structure written by MMmdl.
 86 89  0  0  1  0            999 V2000
   -0.9939    3.5650    5.9643 C   0  0  0  0  0  0
   -0.2193    2.3152    5.5202 C   0  0  0  0  0  0
    0.8840    1.9520    6.5275 C   0  0  0  0  0  0
    0.3205    2.4776    4.1044 C   0  0  0  0  0  0
   -0.2436    1.7372    3.0422 C   0  0  0  0  0  0
    0.2244    1.9110    1.7224 C   0  0  0  0  0  0
   -0.4107    1.1420    0.5757 C   0  0  0  0  0  0
    0.1722   -0.2041    0.3915 N   0  3  0  0  0  0
    1.6117   -0.2188    0.0583 C   0  0  0  0  0  0
    2.0842   -1.6277   -0.3443 C   0  0  1  0  0  0
    1.6205   -1.8879   -1.6553 O   0  0  0  0  0  0
    3.6303   -1.7596   -0.2648 C   0  0  2  0  0  0
    4.3789   -1.2003   -1.5052 C   0  0  0  0  0  0
    5.8930   -0.8943   -1.3480 C   0  0  2  0  0  0
    6.7559   -2.1671   -1.3720 C   0  0  0  0  0  0
    6.2508   -0.0128   -0.1295 C   0  0  0  0  0  0
    5.5175    1.3450   -0.0729 C   0  0  0  0  0  0
    5.7410    2.1233    1.2368 C   0  0  0  0  0  0
    5.0674    1.4512    2.4436 C   0  0  0  0  0  0
    5.1462    2.2632    3.7459 C   0  0  0  0  0  0
    4.3138    1.6538    4.8915 C   0  0  0  0  0  0
    4.9699    0.4650    5.6299 C   0  0  0  0  0  0
    5.2905   -0.6392    4.7871 O   0  0  0  0  0  0
    4.2785   -1.3757    4.2084 C   0  0  0  0  0  0
    4.6379   -2.2041    3.1266 C   0  0  0  0  0  0
    3.6643   -2.9483    2.4316 C   0  0  0  0  0  0
    2.3189   -2.8953    2.8475 C   0  0  0  0  0  0
    1.9391   -2.0706    3.9268 C   0  0  0  0  0  0
    2.9223   -1.3244    4.6107 C   0  0  0  0  0  0
    0.5350   -1.9502    4.3048 C   0  0  0  0  0  0
    0.0116   -1.3728    5.3861 N   0  0  0  0  0  0
   -1.3613   -1.5057    5.2441 C   0  0  0  0  0  0
   -1.6033   -2.1578    4.0643 C   0  0  0  0  0  0
   -0.4110   -2.4422    3.4567 O   0  0  0  0  0  0
    4.0535   -3.7539    1.2286 C   0  0  0  0  0  0
    4.3920   -4.9275    1.3564 O   0  0  0  0  0  0
    4.0134   -3.1443    0.0268 N   0  0  0  0  0  0
    1.2735    2.8188    1.4669 C   0  0  0  0  0  0
    1.8456    3.5524    2.5219 C   0  0  0  0  0  0
    1.3662    3.3878    3.8346 C   0  0  0  0  0  0
    1.6115   -2.3530    0.3151 H   0  0  0  0  0  0
    3.9442   -1.1590    0.5859 H   0  0  0  0  0  0
    6.1759   -0.3289   -2.2370 H   0  0  0  0  0  0
   -1.8155    3.7803    5.2805 H   0  0  0  0  0  0
   -0.3495    4.4441    5.9984 H   0  0  0  0  0  0
   -1.4206    3.4297    6.9585 H   0  0  0  0  0  0
   -0.9270    1.4854    5.5108 H   0  0  0  0  0  0
    1.4078    1.0465    6.2263 H   0  0  0  0  0  0
    0.4635    1.7712    7.5170 H   0  0  0  0  0  0
    1.6236    2.7465    6.6271 H   0  0  0  0  0  0
   -1.0497    1.0443    3.2365 H   0  0  0  0  0  0
   -1.4794    1.0351    0.7636 H   0  0  0  0  0  0
   -0.3140    1.7094   -0.3512 H   0  0  0  0  0  0
    0.0292   -0.7411    1.2348 H   0  0  0  0  0  0
    1.8281    0.5016   -0.7322 H   0  0  0  0  0  0
    2.1523    0.1110    0.9459 H   0  0  0  0  0  0
    1.8986   -2.7563   -1.9058 H   0  0  0  0  0  0
    4.2398   -1.8768   -2.3495 H   0  0  0  0  0  0
    3.8904   -0.2762   -1.8141 H   0  0  0  0  0  0
    6.6295   -2.7605   -0.4670 H   0  0  0  0  0  0
    7.8145   -1.9170   -1.4483 H   0  0  0  0  0  0
    6.5088   -2.7988   -2.2257 H   0  0  0  0  0  0
    6.0735   -0.5871    0.7775 H   0  0  0  0  0  0
    7.3242    0.1804   -0.1348 H   0  0  0  0  0  0
    5.8465    1.9566   -0.9135 H   0  0  0  0  0  0
    4.4446    1.2107   -0.2038 H   0  0  0  0  0  0
    6.8085    2.2484    1.4223 H   0  0  0  0  0  0
    5.3308    3.1269    1.1178 H   0  0  0  0  0  0
    4.0211    1.2548    2.2067 H   0  0  0  0  0  0
    5.5367    0.4858    2.6053 H   0  0  0  0  0  0
    6.1845    2.3863    4.0559 H   0  0  0  0  0  0
    4.7685    3.2666    3.5478 H   0  0  0  0  0  0
    4.1336    2.4360    5.6293 H   0  0  0  0  0  0
    3.3272    1.3811    4.5197 H   0  0  0  0  0  0
    5.9051    0.8048    6.0752 H   0  0  0  0  0  0
    4.3551    0.1413    6.4703 H   0  0  0  0  0  0
    5.6694   -2.2367    2.8051 H   0  0  0  0  0  0
    1.5747   -3.4719    2.3175 H   0  0  0  0  0  0
    2.6175   -0.7015    5.4355 H   0  0  0  0  0  0
   -2.0503   -1.1275    5.9850 H   0  0  0  0  0  0
   -2.5000   -2.4744    3.5521 H   0  0  0  0  0  0
    4.2865   -3.7014   -0.7702 H   0  0  0  0  0  0
    1.6410    2.9582    0.4607 H   0  0  0  0  0  0
    2.6477    4.2480    2.3239 H   0  0  0  0  0  0
    1.8054    3.9673    4.6331 H   0  0  0  0  0  0
   -0.3236   -0.6549   -0.3644 H   0  0  0  0  0  0
  1  2  1  0  0  0
  1 44  1  0  0  0
  1 45  1  0  0  0
  1 46  1  0  0  0
  2  3  1  0  0  0
  2  4  1  0  0  0
  2 47  1  0  0  0
  3 48  1  0  0  0
  3 49  1  0  0  0
  3 50  1  0  0  0
  4 40  1  0  0  0
  4  5  2  0  0  0
  5  6  1  0  0  0
  5 51  1  0  0  0
  6  7  1  0  0  0
  6 38  2  0  0  0
  7  8  1  0  0  0
  7 52  1  0  0  0
  7 53  1  0  0  0
  8  9  1  0  0  0
  8 54  1  0  0  0
  8 86  1  0  0  0
  9 10  1  0  0  0
  9 55  1  0  0  0
  9 56  1  0  0  0
 10 41  1  0  0  0
 10 11  1  0  0  0
 10 12  1  0  0  0
 11 57  1  0  0  0
 12 42  1  0  0  0
 12 37  1  0  0  0
 12 13  1  0  0  0
 13 14  1  0  0  0
 13 58  1  0  0  0
 13 59  1  0  0  0
 14 43  1  0  0  0
 14 15  1  0  0  0
 14 16  1  0  0  0
 15 60  1  0  0  0
 15 61  1  0  0  0
 15 62  1  0  0  0
 16 17  1  0  0  0
 16 63  1  0  0  0
 16 64  1  0  0  0
 17 18  1  0  0  0
 17 65  1  0  0  0
 17 66  1  0  0  0
 18 19  1  0  0  0
 18 67  1  0  0  0
 18 68  1  0  0  0
 19 20  1  0  0  0
 19 69  1  0  0  0
 19 70  1  0  0  0
 20 21  1  0  0  0
 20 71  1  0  0  0
 20 72  1  0  0  0
 21 22  1  0  0  0
 21 73  1  0  0  0
 21 74  1  0  0  0
 22 23  1  0  0  0
 22 75  1  0  0  0
 22 76  1  0  0  0
 23 24  1  0  0  0
 24 29  1  0  0  0
 24 25  2  0  0  0
 25 26  1  0  0  0
 25 77  1  0  0  0
 26 27  2  0  0  0
 26 35  1  0  0  0
 27 28  1  0  0  0
 27 78  1  0  0  0
 28 29  2  0  0  0
 28 30  1  0  0  0
 29 79  1  0  0  0
 30 34  1  0  0  0
 30 31  2  0  0  0
 31 32  1  0  0  0
 32 33  2  0  0  0
 32 80  1  0  0  0
 33 34  1  0  0  0
 33 81  1  0  0  0
 35 36  2  0  0  0
 35 37  1  0  0  0
 37 82  1  0  0  0
 38 39  1  0  0  0
 38 83  1  0  0  0
 39 40  2  0  0  0
 39 84  1  0  0  0
 40 85  1  0  0  0
M  CHG  1   8   1
M  END
> <s_m_source_file>
BACE_80.smi

> <i_m_source_file_index>
1

> <i_lp_mmshare_version>
42013

> <i_f3d_flags>
0

> <s_epik_input>
bzFbY0hdW2NIXW5jMS1jKFtjSF0yKVtjSF1jKFtjSF1jMjMpQyg9TylbTkhdW0NASF0oW0NASF0oW09IXSlbQ0gyXVtOSF1bQ0gyXWMoW2NIXVtjSF1bY0hdNClbY0hdYzRbQ0hdKFtDSDNdKVtDSDNdKVtDSDJdW0NASF0oW0NIM10pW0NIMl1bQ0gyXVtDSDJdW0NIMl1bQ0gyXVtDSDJdW0NIMl1PMw==

> <s_epik_cmdline>
J2VwaWtfcHl0aG9uJywgJy1waCcsICc3LjAnLCAnLXRuJywgJzgnLCAnLW1hJywgJzIwMCcsICctaW1hZScsICc8aW5maWxlLm1hZT4nLCAnLW9tYWUnLCAnPG91dGZpbGUubWFlPic=

> <r_lp_tautomer_probability>
1

> <r_epik_Ionization_Penalty>
0.0165159

> <r_epik_Ionization_Penalty_Charging>
0.0165153

> <r_epik_Ionization_Penalty_Neutral>
6.76092e-07

> <r_epik_State_Penalty>
0.0130399

> <r_epik_Charging_Adjusted_Penalty>
0.0295552

> <i_epik_Tot_Q>
1

> <i_epik_Tot_abs_Q>
1

> <s_lp_Force_Field>
OPLS_2005

> <r_lp_Energy>
31.2081

> <b_lp_Chiralities_Consistent>
1

> <s_lp_Variant>
BACE_80.smi:1-1

$$$$
BACE_80.smi:1
                    3D
 Structure written by MMmdl.
 85 88  0  0  1  0            999 V2000
   -5.2197    1.9474    3.1042 C   0  0  0  0  0  0
   -4.4964    2.9114    2.1514 C   0  0  0  0  0  0
   -5.2993    4.2039    1.9356 C   0  0  0  0  0  0
   -4.1475    2.2351    0.8315 C   0  0  0  0  0  0
   -2.7958    2.0420    0.4727 C   0  0  0  0  0  0
   -2.4619    1.4125   -0.7445 C   0  0  0  0  0  0
   -1.0088    1.1995   -1.1147 C   0  0  0  0  0  0
   -0.4430    0.0380   -0.4387 N   0  0  0  0  0  0
    0.9646   -0.1819   -0.7548 C   0  0  0  0  0  0
    1.5089   -1.4381   -0.0424 C   0  0  1  0  0  0
    1.0118   -2.5905   -0.6915 O   0  0  0  0  0  0
    3.0631   -1.5358    0.0590 C   0  0  2  0  0  0
    3.5388   -1.0084    1.4400 C   0  0  0  0  0  0
    4.9961   -1.3019    1.8804 C   0  0  2  0  0  0
    6.0598   -0.5280    1.0810 C   0  0  0  0  0  0
    5.2969   -2.8140    1.9684 C   0  0  0  0  0  0
    6.5713   -3.1451    2.7706 C   0  0  0  0  0  0
    6.8061   -4.6523    2.9934 C   0  0  0  0  0  0
    7.7403   -5.3272    1.9717 C   0  0  0  0  0  0
    7.1640   -5.4258    0.5523 C   0  0  0  0  0  0
    8.0707   -6.2143   -0.4058 C   0  0  0  0  0  0
    7.4524   -6.4200   -1.7974 C   0  0  0  0  0  0
    7.2886   -5.1606   -2.4465 O   0  0  0  0  0  0
    6.0195   -4.6312   -2.5087 C   0  0  0  0  0  0
    5.8711   -3.2519   -2.2630 C   0  0  0  0  0  0
    4.5987   -2.6462   -2.3007 C   0  0  0  0  0  0
    3.4721   -3.4204   -2.6443 C   0  0  0  0  0  0
    3.6037   -4.7987   -2.9126 C   0  0  0  0  0  0
    4.8800   -5.3985   -2.8462 C   0  0  0  0  0  0
    2.4288   -5.5875   -3.2719 C   0  0  0  0  0  0
    1.1464   -5.2213   -3.2544 N   0  0  0  0  0  0
    0.4415   -6.3365   -3.6821 C   0  0  0  0  0  0
    1.3435   -7.3335   -3.9428 C   0  0  0  0  0  0
    2.6059   -6.8736   -3.6854 O   0  0  0  0  0  0
    4.4656   -1.1762   -2.0411 C   0  0  0  0  0  0
    5.0607   -0.3768   -2.7601 O   0  0  0  0  0  0
    3.7135   -0.7599   -1.0047 N   0  0  0  0  0  0
   -3.4849    0.9709   -1.6081 C   0  0  0  0  0  0
   -4.8346    1.1615   -1.2569 C   0  0  0  0  0  0
   -5.1652    1.7908   -0.0415 C   0  0  0  0  0  0
    1.0860   -1.4753    0.9622 H   0  0  0  0  0  0
    3.3480   -2.5863    0.0089 H   0  0  0  0  0  0
    5.0563   -0.9135    2.8982 H   0  0  0  0  0  0
   -4.6166    1.0590    3.2928 H   0  0  0  0  0  0
   -6.1762    1.6202    2.6959 H   0  0  0  0  0  0
   -5.4165    2.4214    4.0662 H   0  0  0  0  0  0
   -3.5604    3.1954    2.6344 H   0  0  0  0  0  0
   -4.7560    4.8997    1.2956 H   0  0  0  0  0  0
   -5.4890    4.7085    2.8834 H   0  0  0  0  0  0
   -6.2647    4.0067    1.4694 H   0  0  0  0  0  0
   -2.0073    2.3737    1.1326 H   0  0  0  0  0  0
   -0.9276    1.0838   -2.1963 H   0  0  0  0  0  0
   -0.4481    2.0982   -0.8540 H   0  0  0  0  0  0
   -0.9702   -0.7902   -0.6979 H   0  0  0  0  0  0
    1.1077   -0.2670   -1.8333 H   0  0  0  0  0  0
    1.5328    0.6910   -0.4314 H   0  0  0  0  0  0
    1.2832   -3.3528   -0.2032 H   0  0  0  0  0  0
    3.3576    0.0662    1.4941 H   0  0  0  0  0  0
    2.8987   -1.4391    2.2110 H   0  0  0  0  0  0
    6.2564   -0.9892    0.1149 H   0  0  0  0  0  0
    7.0080   -0.4965    1.6174 H   0  0  0  0  0  0
    5.7546    0.5045    0.9095 H   0  0  0  0  0  0
    4.4531   -3.3107    2.4486 H   0  0  0  0  0  0
    5.3579   -3.2328    0.9658 H   0  0  0  0  0  0
    7.4500   -2.6997    2.3039 H   0  0  0  0  0  0
    6.4829   -2.6712    3.7490 H   0  0  0  0  0  0
    7.2664   -4.7737    3.9747 H   0  0  0  0  0  0
    5.8565   -5.1854    3.0523 H   0  0  0  0  0  0
    8.6961   -4.8027    1.9448 H   0  0  0  0  0  0
    7.9618   -6.3336    2.3290 H   0  0  0  0  0  0
    6.1771   -5.8887    0.5881 H   0  0  0  0  0  0
    7.0296   -4.4220    0.1540 H   0  0  0  0  0  0
    9.0307   -5.7063   -0.5044 H   0  0  0  0  0  0
    8.2855   -7.1922    0.0262 H   0  0  0  0  0  0
    8.1278   -7.0206   -2.4070 H   0  0  0  0  0  0
    6.5370   -7.0016   -1.6994 H   0  0  0  0  0  0
    6.7431   -2.6608   -2.0221 H   0  0  0  0  0  0
    2.5054   -2.9468   -2.7237 H   0  0  0  0  0  0
    4.9839   -6.4476   -3.0783 H   0  0  0  0  0  0
   -0.6352   -6.3328   -3.7669 H   0  0  0  0  0  0
    1.2580   -8.3521   -4.2914 H   0  0  0  0  0  0
    3.6439    0.2415   -0.8973 H   0  0  0  0  0  0
   -3.2377    0.4836   -2.5400 H   0  0  0  0  0  0
   -5.6174    0.8230   -1.9196 H   0  0  0  0  0  0
   -6.2044    1.9288    0.2180 H   0  0  0  0  0  0
  1  2  1  0  0  0
  1 44  1  0  0  0
  1 45  1  0  0  0
  1 46  1  0  0  0
  2  3  1  0  0  0
  2  4  1  0  0  0
  2 47  1  0  0  0
  3 48  1  0  0  0
  3 49  1  0  0  0
  3 50  1  0  0  0
  4 40  1  0  0  0
  4  5  2  0  0  0
  5  6  1  0  0  0
  5 51  1  0  0  0
  6  7  1  0  0  0
  6 38  2  0  0  0
  7  8  1  0  0  0
  7 52  1  0  0  0
  7 53  1  0  0  0
  8  9  1  0  0  0
  8 54  1  0  0  0
  9 10  1  0  0  0
  9 55  1  0  0  0
  9 56  1  0  0  0
 10 41  1  0  0  0
 10 11  1  0  0  0
 10 12  1  0  0  0
 11 57  1  0  0  0
 12 42  1  0  0  0
 12 37  1  0  0  0
 12 13  1  0  0  0
 13 14  1  0  0  0
 13 58  1  0  0  0
 13 59  1  0  0  0
 14 43  1  0  0  0
 14 15  1  0  0  0
 14 16  1  0  0  0
 15 60  1  0  0  0
 15 61  1  0  0  0
 15 62  1  0  0  0
 16 17  1  0  0  0
 16 63  1  0  0  0
 16 64  1  0  0  0
 17 18  1  0  0  0
 17 65  1  0  0  0
 17 66  1  0  0  0
 18 19  1  0  0  0
 18 67  1  0  0  0
 18 68  1  0  0  0
 19 20  1  0  0  0
 19 69  1  0  0  0
 19 70  1  0  0  0
 20 21  1  0  0  0
 20 71  1  0  0  0
 20 72  1  0  0  0
 21 22  1  0  0  0
 21 73  1  0  0  0
 21 74  1  0  0  0
 22 23  1  0  0  0
 22 75  1  0  0  0
 22 76  1  0  0  0
 23 24  1  0  0  0
 24 29  1  0  0  0
 24 25  2  0  0  0
 25 26  1  0  0  0
 25 77  1  0  0  0
 26 27  2  0  0  0
 26 35  1  0  0  0
 27 28  1  0  0  0
 27 78  1  0  0  0
 28 29  2  0  0  0
 28 30  1  0  0  0
 29 79  1  0  0  0
 30 34  1  0  0  0
 30 31  2  0  0  0
 31 32  1  0  0  0
 32 33  2  0  0  0
 32 80  1  0  0  0
 33 34  1  0  0  0
 33 81  1  0  0  0
 35 36  2  0  0  0
 35 37  1  0  0  0
 37 82  1  0  0  0
 38 39  1  0  0  0
 38 83  1  0  0  0
 39 40  2  0  0  0
 39 84  1  0  0  0
 40 85  1  0  0  0
M  END
> <s_m_source_file>
BACE_80.smi

> <i_m_source_file_index>
1

> <i_lp_mmshare_version>
42013

> <i_f3d_flags>
0

> <s_epik_input>
bzFbY0hdW2NIXW5jMS1jKFtjSF0yKVtjSF1jKFtjSF1jMjMpQyg9TylbTkhdW0NASF0oW0NASF0oW09IXSlbQ0gyXVtOSF1bQ0gyXWMoW2NIXVtjSF1bY0hdNClbY0hdYzRbQ0hdKFtDSDNdKVtDSDNdKVtDSDJdW0NASF0oW0NIM10pW0NIMl1bQ0gyXVtDSDJdW0NIMl1bQ0gyXVtDSDJdW0NIMl1PMw==

> <s_epik_cmdline>
J2VwaWtfcHl0aG9uJywgJy1waCcsICc3LjAnLCAnLXRuJywgJzgnLCAnLW1hJywgJzIwMCcsICctaW1hZScsICc8aW5maWxlLm1hZT4nLCAnLW9tYWUnLCAnPG91dGZpbGUubWFlPic=

> <r_lp_tautomer_probability>
1

> <r_epik_Ionization_Penalty>
2.12936

> <r_epik_Ionization_Penalty_Charging>
0

> <r_epik_Ionization_Penalty_Neutral>
2.12936

> <r_epik_State_Penalty>
2.26762

> <r_epik_Charging_Adjusted_Penalty>
2.26762

> <i_epik_Tot_Q>
0

> <i_epik_Tot_abs_Q>
0

> <s_lp_Force_Field>
OPLS_2005

> <r_lp_Energy>
50.2258

> <b_lp_Chiralities_Consistent>
1

> <s_lp_Variant>
BACE_80.smi:1-2

$$$$
