BACE_102.smi:1
                    3D
 Structure written by MMmdl.
 83 87  0  0  1  0            999 V2000
    3.8202    5.9801   -2.6003 C   0  0  0  0  0  0
    2.8705    4.8067   -2.7132 C   0  0  0  0  0  0
    2.0683    4.4205   -1.6213 C   0  0  0  0  0  0
    1.2102    3.3088   -1.7679 C   0  0  0  0  0  0
    1.1659    2.6625   -3.0261 C   0  0  0  0  0  0
    2.0125    3.1258   -4.0574 C   0  0  0  0  0  0
    2.0406    2.5008   -5.3074 N   0  0  0  0  0  0
    0.9158    2.8525   -6.1622 C   0  0  0  0  0  0
   -0.3387    2.0426   -5.9108 C   0  0  0  0  0  0
   -1.5565    2.5855   -5.7545 C   0  0  0  0  0  0
   -2.8308    1.7999   -5.5376 C   0  0  0  0  0  0
   -3.4553    2.2068   -4.3268 O   0  0  0  0  0  0
   -3.4504    1.2868   -3.3085 C   0  0  0  0  0  0
   -2.8895    1.6623   -2.0722 C   0  0  0  0  0  0
   -2.8637    0.7568   -0.9914 C   0  0  0  0  0  0
   -2.2371    1.1620    0.3337 C   0  0  0  0  0  0
   -0.7180    0.8690    0.4444 C   0  0  2  0  0  0
    0.0242    1.5541   -0.6150 N   0  0  0  0  0  0
    0.3608    2.8546   -0.6151 C   0  0  0  0  0  0
    0.0579    3.6318    0.2906 O   0  0  0  0  0  0
   -0.3852   -0.6489    0.4643 C   0  0  2  0  0  0
   -0.9598   -1.1951    1.6352 O   0  0  0  0  0  0
    1.1208   -0.9772    0.5331 C   0  0  0  0  0  0
    1.7478   -0.9674   -0.7905 N   0  0  0  0  0  0
    3.2062   -1.0880   -0.7672 C   0  0  0  0  0  0
    3.8064   -2.2782   -1.4865 C   0  0  0  0  0  0
    3.8573   -2.2109    0.0188 C   0  0  0  0  0  0
    3.8714    0.2535   -0.8603 C   0  0  0  0  0  0
    4.0270    1.0518    0.2920 C   0  0  0  0  0  0
    4.6308    2.3298    0.2342 C   0  0  0  0  0  0
    5.1079    2.7877   -1.0181 C   0  0  0  0  0  0
    4.9581    1.9997   -2.1741 C   0  0  0  0  0  0
    4.3325    0.7435   -2.0985 C   0  0  0  0  0  0
    4.7461    3.1700    1.5199 C   0  0  0  0  0  0
    5.3862    4.5556    1.2780 C   0  0  0  0  0  0
    5.6165    2.4205    2.5493 C   0  0  0  0  0  0
    3.3416    3.4049    2.1164 C   0  0  0  0  0  0
   -3.4331   -0.5243   -1.1438 C   0  0  0  0  0  0
   -4.0134   -0.8991   -2.3699 C   0  0  0  0  0  0
   -4.0275    0.0029   -3.4507 C   0  0  0  0  0  0
   -4.6160   -0.3639   -4.6144 F   0  0  0  0  0  0
    2.8556    4.1684   -3.9022 N   0  0  0  0  0  0
   -0.3740    1.2791    1.3964 H   0  0  0  0  0  0
   -0.8259   -1.1581   -0.3931 H   0  0  0  0  0  0
    4.0252    6.2191   -1.5567 H   0  0  0  0  0  0
    3.3873    6.8608   -3.0749 H   0  0  0  0  0  0
    4.7698    5.7568   -3.0880 H   0  0  0  0  0  0
    2.1260    4.9600   -0.6872 H   0  0  0  0  0  0
    0.5155    1.8172   -3.1989 H   0  0  0  0  0  0
    2.9095    2.6852   -5.7878 H   0  0  0  0  0  0
    0.6962    3.9175   -6.0702 H   0  0  0  0  0  0
    1.2201    2.6882   -7.1959 H   0  0  0  0  0  0
   -0.2225    0.9686   -5.8916 H   0  0  0  0  0  0
   -1.6658    3.6597   -5.7863 H   0  0  0  0  0  0
   -3.5118    2.0050   -6.3636 H   0  0  0  0  0  0
   -2.6022    0.7336   -5.5732 H   0  0  0  0  0  0
   -2.4626    2.6485   -1.9607 H   0  0  0  0  0  0
   -2.4135    2.2283    0.4813 H   0  0  0  0  0  0
   -2.7771    0.6711    1.1437 H   0  0  0  0  0  0
    0.3175    0.9938   -1.4017 H   0  0  0  0  0  0
   -0.5728   -0.7697    2.3852 H   0  0  0  0  0  0
    1.6153   -0.2758    1.2047 H   0  0  0  0  0  0
    1.2489   -1.9660    0.9742 H   0  0  0  0  0  0
    1.5178   -0.0812   -1.2277 H   0  0  0  0  0  0
    3.1300   -3.0137   -1.9181 H   0  0  0  0  0  0
    4.7466   -2.1433   -2.0176 H   0  0  0  0  0  0
    4.8254   -2.0142    0.4753 H   0  0  0  0  0  0
    3.2341   -2.9288    0.5471 H   0  0  0  0  0  0
    3.6697    0.6710    1.2365 H   0  0  0  0  0  0
    5.5824    3.7499   -1.1280 H   0  0  0  0  0  0
    5.3125    2.3681   -3.1256 H   0  0  0  0  0  0
    4.2112    0.1544   -2.9957 H   0  0  0  0  0  0
    5.4465    5.1297    2.2033 H   0  0  0  0  0  0
    4.8039    5.1495    0.5727 H   0  0  0  0  0  0
    6.4025    4.4700    0.8917 H   0  0  0  0  0  0
    6.6146    2.2271    2.1547 H   0  0  0  0  0  0
    5.1836    1.4602    2.8304 H   0  0  0  0  0  0
    5.7334    2.9993    3.4662 H   0  0  0  0  0  0
    3.3918    4.0117    3.0211 H   0  0  0  0  0  0
    2.8439    2.4733    2.3862 H   0  0  0  0  0  0
    2.6961    3.9273    1.4108 H   0  0  0  0  0  0
   -3.4261   -1.2232   -0.3200 H   0  0  0  0  0  0
   -4.4545   -1.8787   -2.4801 H   0  0  0  0  0  0
  1  2  1  0  0  0
  1 45  1  0  0  0
  1 46  1  0  0  0
  1 47  1  0  0  0
  2 42  1  0  0  0
  2  3  2  0  0  0
  3  4  1  0  0  0
  3 48  1  0  0  0
  4 19  1  0  0  0
  4  5  2  0  0  0
  5  6  1  0  0  0
  5 49  1  0  0  0
  6  7  1  0  0  0
  6 42  2  0  0  0
  7  8  1  0  0  0
  7 50  1  0  0  0
  8  9  1  0  0  0
  8 51  1  0  0  0
  8 52  1  0  0  0
  9 10  2  0  0  0
  9 53  1  0  0  0
 10 11  1  0  0  0
 10 54  1  0  0  0
 11 12  1  0  0  0
 11 55  1  0  0  0
 11 56  1  0  0  0
 12 13  1  0  0  0
 13 40  1  0  0  0
 13 14  2  0  0  0
 14 15  1  0  0  0
 14 57  1  0  0  0
 15 16  1  0  0  0
 15 38  2  0  0  0
 16 17  1  0  0  0
 16 58  1  0  0  0
 16 59  1  0  0  0
 17 43  1  0  0  0
 17 18  1  0  0  0
 17 21  1  0  0  0
 18 19  1  0  0  0
 18 60  1  0  0  0
 19 20  2  0  0  0
 21 44  1  0  0  0
 21 22  1  0  0  0
 21 23  1  0  0  0
 22 61  1  0  0  0
 23 24  1  0  0  0
 23 62  1  0  0  0
 23 63  1  0  0  0
 24 25  1  0  0  0
 24 64  1  0  0  0
 25 27  1  0  0  0
 25 26  1  0  0  0
 25 28  1  0  0  0
 26 27  1  0  0  0
 26 65  1  0  0  0
 26 66  1  0  0  0
 27 67  1  0  0  0
 27 68  1  0  0  0
 28 33  1  0  0  0
 28 29  2  0  0  0
 29 30  1  0  0  0
 29 69  1  0  0  0
 30 31  2  0  0  0
 30 34  1  0  0  0
 31 32  1  0  0  0
 31 70  1  0  0  0
 32 33  2  0  0  0
 32 71  1  0  0  0
 33 72  1  0  0  0
 34 35  1  0  0  0
 34 36  1  0  0  0
 34 37  1  0  0  0
 35 73  1  0  0  0
 35 74  1  0  0  0
 35 75  1  0  0  0
 36 76  1  0  0  0
 36 77  1  0  0  0
 36 78  1  0  0  0
 37 79  1  0  0  0
 37 80  1  0  0  0
 37 81  1  0  0  0
 38 39  1  0  0  0
 38 82  1  0  0  0
 39 40  2  0  0  0
 39 83  1  0  0  0
 40 41  1  0  0  0
M  END
> <s_m_source_file>
BACE_102.smi

> <i_m_source_file_index>
1

> <i_lp_mmshare_version>
42013

> <i_f3d_flags>
0

> <s_epik_input>
YzEyW2NIXWMoW0NIM10pbmMoW2NIXTEpW05IXVtDSDJdL1tDSF09W0NIXS9bQ0gyXU9jM1tjSF1jKFtjSF1bY0hdYzNGKVtDSDJdW0NASF0oW05IXUMyPU8pW0NASF0oW09IXSlbQ0gyXVtOSF1DNChbQ0gyXVtDSDJdNCljNVtjSF1jKEMoW0NIM10pKFtDSDNdKVtDSDNdKVtjSF1bY0hdW2NIXTU=

> <s_epik_cmdline>
J2VwaWtfcHl0aG9uJywgJy1waCcsICc3LjAnLCAnLXRuJywgJzgnLCAnLW1hJywgJzIwMCcsICctaW1hZScsICc8aW5maWxlLm1hZT4nLCAnLW9tYWUnLCAnPG91dGZpbGUubWFlPic=

> <r_lp_tautomer_probability>
1

> <r_epik_Ionization_Penalty>
0.320607

> <r_epik_Ionization_Penalty_Charging>
0

> <r_epik_Ionization_Penalty_Neutral>
0.320607

> <r_epik_State_Penalty>
0.330633

> <r_epik_Charging_Adjusted_Penalty>
0.330633

> <i_epik_Tot_Q>
0

> <i_epik_Tot_abs_Q>
0

> <s_lp_Force_Field>
OPLS_2005

> <r_lp_Energy>
38.0869

> <b_lp_Chiralities_Consistent>
1

> <s_lp_Variant>
BACE_102.smi:1-1

$$$$
BACE_102.smi:1
                    3D
 Structure written by MMmdl.
 84 88  0  0  1  0            999 V2000
    4.6307    4.8316   -4.3788 C   0  0  0  0  0  0
    3.2650    4.2107   -4.1746 C   0  0  0  0  0  0
    2.7933    3.9070   -2.8827 C   0  0  0  0  0  0
    1.5131    3.3274   -2.7438 C   0  0  0  0  0  0
    0.7666    3.0756   -3.9180 C   0  0  0  0  0  0
    1.3328    3.4060   -5.1739 C   0  0  0  0  0  0
    0.6761    3.1573   -6.3859 N   0  0  0  0  0  0
   -0.0040    1.8788   -6.5265 C   0  0  0  0  0  0
   -1.4933    1.9736   -6.2804 C   0  0  0  0  0  0
   -2.1176    1.3305   -5.2836 C   0  0  0  0  0  0
   -3.6003    1.4246   -4.9859 C   0  0  0  0  0  0
   -4.0816    0.2462   -4.3496 O   0  0  0  0  0  0
   -3.7596    0.0200   -3.0249 C   0  0  0  0  0  0
   -3.0317    0.9266   -2.2099 C   0  0  0  0  0  0
   -2.7473    0.6182   -0.8639 C   0  0  0  0  0  0
   -1.9971    1.6133    0.0089 C   0  0  0  0  0  0
   -0.4536    1.4957   -0.0157 C   0  0  2  0  0  0
    0.0865    2.0220   -1.2766 N   0  0  0  0  0  0
    0.9677    3.0365   -1.3735 C   0  0  0  0  0  0
    1.3851    3.6627   -0.3987 O   0  0  0  0  0  0
    0.0925    0.0731    0.2860 C   0  0  2  0  0  0
   -0.2462   -0.2458    1.6233 O   0  0  0  0  0  0
    1.6237   -0.0498    0.1471 C   0  0  0  0  0  0
    2.0935   -1.4147    0.4707 N   0  3  0  0  0  0
    3.5244   -1.6671    0.1937 C   0  0  0  0  0  0
    4.2196   -2.3627    1.3418 C   0  0  0  0  0  0
    4.4881   -0.8982    1.0709 C   0  0  0  0  0  0
    3.8171   -2.0297   -1.2315 C   0  0  0  0  0  0
    4.0799   -1.0287   -2.1903 C   0  0  0  0  0  0
    4.3499   -1.3509   -3.5425 C   0  0  0  0  0  0
    4.3495   -2.7174   -3.9164 C   0  0  0  0  0  0
    4.0904   -3.7230   -2.9672 C   0  0  0  0  0  0
    3.8235   -3.3808   -1.6307 C   0  0  0  0  0  0
    4.5862   -0.2260   -4.5690 C   0  0  0  0  0  0
    5.1705   -0.7439   -5.9033 C   0  0  0  0  0  0
    5.5729    0.8289   -4.0188 C   0  0  0  0  0  0
    3.2383    0.4523   -4.8690 C   0  0  0  0  0  0
   -3.1953   -0.6026   -0.3193 C   0  0  0  0  0  0
   -3.9125   -1.5103   -1.1188 C   0  0  0  0  0  0
   -4.1935   -1.1988   -2.4622 C   0  0  0  0  0  0
   -4.8880   -2.0815   -3.2193 F   0  0  0  0  0  0
    2.5519    3.9720   -5.2945 N   0  0  0  0  0  0
   -0.1062    2.1394    0.7945 H   0  0  0  0  0  0
   -0.3700   -0.6578   -0.3776 H   0  0  0  0  0  0
    5.1057    5.0665   -3.4259 H   0  0  0  0  0  0
    4.5467    5.7549   -4.9527 H   0  0  0  0  0  0
    5.2799    4.1454   -4.9231 H   0  0  0  0  0  0
    3.4036    4.1226   -2.0173 H   0  0  0  0  0  0
   -0.2222    2.6504   -3.8535 H   0  0  0  0  0  0
    1.1665    3.4721   -7.2109 H   0  0  0  0  0  0
    0.1531    1.5171   -7.5426 H   0  0  0  0  0  0
    0.4398    1.1355   -5.8627 H   0  0  0  0  0  0
   -2.0575    2.6049   -6.9516 H   0  0  0  0  0  0
   -1.5302    0.7257   -4.6082 H   0  0  0  0  0  0
   -3.8216    2.3149   -4.3967 H   0  0  0  0  0  0
   -4.1389    1.5487   -5.9258 H   0  0  0  0  0  0
   -2.6807    1.8720   -2.5936 H   0  0  0  0  0  0
   -2.2939    2.6244   -0.2736 H   0  0  0  0  0  0
   -2.3484    1.4898    1.0342 H   0  0  0  0  0  0
   -0.1971    1.5585   -2.1280 H   0  0  0  0  0  0
    0.0901    0.4312    2.1914 H   0  0  0  0  0  0
    1.9163    0.1757   -0.8774 H   0  0  0  0  0  0
    2.1226    0.6771    0.7889 H   0  0  0  0  0  0
    1.9211   -1.5783    1.4523 H   0  0  0  0  0  0
    3.6442   -2.5973    2.2356 H   0  0  0  0  0  0
    5.0250   -3.0575    1.1116 H   0  0  0  0  0  0
    5.4602   -0.6423    0.6536 H   0  0  0  0  0  0
    4.0955   -0.1929    1.8007 H   0  0  0  0  0  0
    4.0562    0.0024   -1.8732 H   0  0  0  0  0  0
    4.5375   -3.0279   -4.9319 H   0  0  0  0  0  0
    4.0920   -4.7605   -3.2680 H   0  0  0  0  0  0
    3.6225   -4.1613   -0.9113 H   0  0  0  0  0  0
    5.3755    0.0787   -6.5895 H   0  0  0  0  0  0
    4.4816   -1.4120   -6.4215 H   0  0  0  0  0  0
    6.1099   -1.2767   -5.7493 H   0  0  0  0  0  0
    6.5232    0.3727   -3.7398 H   0  0  0  0  0  0
    5.1861    1.3540   -3.1461 H   0  0  0  0  0  0
    5.7860    1.5948   -4.7655 H   0  0  0  0  0  0
    3.3522    1.2481   -5.6053 H   0  0  0  0  0  0
    2.8036    0.8929   -3.9718 H   0  0  0  0  0  0
    2.5154   -0.2606   -5.2670 H   0  0  0  0  0  0
   -2.9911   -0.8463    0.7131 H   0  0  0  0  0  0
   -4.2526   -2.4461   -0.7002 H   0  0  0  0  0  0
    1.5494   -2.0774   -0.0628 H   0  0  0  0  0  0
  1  2  1  0  0  0
  1 45  1  0  0  0
  1 46  1  0  0  0
  1 47  1  0  0  0
  2 42  1  0  0  0
  2  3  2  0  0  0
  3  4  1  0  0  0
  3 48  1  0  0  0
  4 19  1  0  0  0
  4  5  2  0  0  0
  5  6  1  0  0  0
  5 49  1  0  0  0
  6  7  1  0  0  0
  6 42  2  0  0  0
  7  8  1  0  0  0
  7 50  1  0  0  0
  8  9  1  0  0  0
  8 51  1  0  0  0
  8 52  1  0  0  0
  9 10  2  0  0  0
  9 53  1  0  0  0
 10 11  1  0  0  0
 10 54  1  0  0  0
 11 12  1  0  0  0
 11 55  1  0  0  0
 11 56  1  0  0  0
 12 13  1  0  0  0
 13 40  1  0  0  0
 13 14  2  0  0  0
 14 15  1  0  0  0
 14 57  1  0  0  0
 15 16  1  0  0  0
 15 38  2  0  0  0
 16 17  1  0  0  0
 16 58  1  0  0  0
 16 59  1  0  0  0
 17 43  1  0  0  0
 17 18  1  0  0  0
 17 21  1  0  0  0
 18 19  1  0  0  0
 18 60  1  0  0  0
 19 20  2  0  0  0
 21 44  1  0  0  0
 21 22  1  0  0  0
 21 23  1  0  0  0
 22 61  1  0  0  0
 23 24  1  0  0  0
 23 62  1  0  0  0
 23 63  1  0  0  0
 24 25  1  0  0  0
 24 64  1  0  0  0
 24 84  1  0  0  0
 25 27  1  0  0  0
 25 26  1  0  0  0
 25 28  1  0  0  0
 26 27  1  0  0  0
 26 65  1  0  0  0
 26 66  1  0  0  0
 27 67  1  0  0  0
 27 68  1  0  0  0
 28 33  1  0  0  0
 28 29  2  0  0  0
 29 30  1  0  0  0
 29 69  1  0  0  0
 30 31  2  0  0  0
 30 34  1  0  0  0
 31 32  1  0  0  0
 31 70  1  0  0  0
 32 33  2  0  0  0
 32 71  1  0  0  0
 33 72  1  0  0  0
 34 35  1  0  0  0
 34 36  1  0  0  0
 34 37  1  0  0  0
 35 73  1  0  0  0
 35 74  1  0  0  0
 35 75  1  0  0  0
 36 76  1  0  0  0
 36 77  1  0  0  0
 36 78  1  0  0  0
 37 79  1  0  0  0
 37 80  1  0  0  0
 37 81  1  0  0  0
 38 39  1  0  0  0
 38 82  1  0  0  0
 39 40  2  0  0  0
 39 83  1  0  0  0
 40 41  1  0  0  0
M  CHG  1  24   1
M  END
> <s_m_source_file>
BACE_102.smi

> <i_m_source_file_index>
1

> <i_lp_mmshare_version>
42013

> <i_f3d_flags>
0

> <s_epik_input>
YzEyW2NIXWMoW0NIM10pbmMoW2NIXTEpW05IXVtDSDJdL1tDSF09W0NIXS9bQ0gyXU9jM1tjSF1jKFtjSF1bY0hdYzNGKVtDSDJdW0NASF0oW05IXUMyPU8pW0NASF0oW09IXSlbQ0gyXVtOSF1DNChbQ0gyXVtDSDJdNCljNVtjSF1jKEMoW0NIM10pKFtDSDNdKVtDSDNdKVtjSF1bY0hdW2NIXTU=

> <s_epik_cmdline>
J2VwaWtfcHl0aG9uJywgJy1waCcsICc3LjAnLCAnLXRuJywgJzgnLCAnLW1hJywgJzIwMCcsICctaW1hZScsICc8aW5maWxlLm1hZT4nLCAnLW9tYWUnLCAnPG91dGZpbGUubWFlPic=

> <r_lp_tautomer_probability>
1

> <r_epik_Ionization_Penalty>
0.532381

> <r_epik_Ionization_Penalty_Charging>
0.527325

> <r_epik_Ionization_Penalty_Neutral>
0.00505567

> <r_epik_State_Penalty>
0.514086

> <r_epik_Charging_Adjusted_Penalty>
1.04141

> <i_epik_Tot_Q>
1

> <i_epik_Tot_abs_Q>
1

> <s_lp_Force_Field>
OPLS_2005

> <r_lp_Energy>
34.8963

> <b_lp_Chiralities_Consistent>
1

> <s_lp_Variant>
BACE_102.smi:1-2

$$$$
