BACE_111.smi:1
                    3D
 Structure written by MMmdl.
 89 93  0  0  1  0            999 V2000
    0.1336   -4.9533   -1.9223 C   0  0  0  0  0  0
    0.2833   -3.9005   -3.0321 C   0  0  0  0  0  0
    1.7555   -3.6793   -3.4117 C   0  0  0  0  0  0
   -0.4038   -2.5911   -2.6652 C   0  0  0  0  0  0
    0.0028   -1.8558   -1.5310 C   0  0  0  0  0  0
   -0.6280   -0.6368   -1.1962 C   0  0  0  0  0  0
   -1.7094   -0.1696   -1.9852 C   0  0  0  0  0  0
   -2.1004   -0.8957   -3.1266 C   0  0  0  0  0  0
   -1.4540   -2.0983   -3.4661 C   0  0  0  0  0  0
   -2.4061    0.9807   -1.6865 O   0  0  0  0  0  0
   -2.3244    1.4803   -0.3520 C   0  0  0  0  0  0
   -2.9049    2.9027   -0.4064 C   0  0  0  0  0  0
   -3.1904    0.6081    0.5819 C   0  0  0  0  0  0
   -0.8482    1.5337    0.0852 C   0  0  0  0  0  0
   -0.1541    0.1599    0.0123 C   0  0  2  0  0  0
    1.3187    0.3155   -0.0191 N   0  3  0  0  0  0
    1.9266    0.8652    1.2121 C   0  0  0  0  0  0
    3.4678    0.8538    1.1320 C   0  0  1  0  0  0
    3.8395    1.6863    0.0486 O   0  0  0  0  0  0
    4.1756    1.3748    2.4125 C   0  0  2  0  0  0
    5.7210    1.2767    2.3413 C   0  0  0  0  0  0
    6.2824   -0.1222    2.5530 C   0  0  0  0  0  0
    6.6271   -0.5557    3.8509 C   0  0  0  0  0  0
    7.1432   -1.8574    4.0662 C   0  0  0  0  0  0
    7.2865   -2.7205    2.9608 C   0  0  0  0  0  0
    6.9572   -2.2894    1.6619 C   0  0  0  0  0  0
    6.4613   -0.9892    1.4564 C   0  0  0  0  0  0
    7.4753   -2.3668    5.3026 O   0  0  0  0  0  0
    7.9574   -1.4883    6.3154 C   0  0  0  0  0  0
    7.5007   -1.9872    7.6940 C   0  0  0  0  0  0
    6.0047   -1.7655    7.9809 C   0  0  0  0  0  0
    5.0729   -2.7781    7.2892 C   0  0  0  0  0  0
    3.7268   -2.6040    7.7180 O   0  0  0  0  0  0
    2.9654   -1.5898    7.1755 C   0  0  0  0  0  0
    3.3779   -0.7371    6.1196 C   0  0  0  0  0  0
    2.4828    0.2522    5.6490 C   0  0  0  0  0  0
    1.2220    0.3634    6.2724 C   0  0  0  0  0  0
    0.9040   -0.5265    7.3168 C   0  0  0  0  0  0
   -0.4352   -0.4546    8.0203 C   0  0  0  0  0  0
    1.7495   -1.4834    7.7529 N   0  0  0  0  0  0
    2.8599    1.1899    4.5377 C   0  0  0  0  0  0
    2.3734    2.3189    4.4714 O   0  0  0  0  0  0
    3.6835    0.6810    3.6061 N   0  0  0  0  0  0
   -0.4204   -0.4257    0.8935 H   0  0  0  0  0  0
    3.7987   -0.1625    0.9167 H   0  0  0  0  0  0
    3.9370    2.4371    2.4954 H   0  0  0  0  0  0
   -0.9175   -5.1377   -1.6982 H   0  0  0  0  0  0
    0.6221   -4.6418   -0.9988 H   0  0  0  0  0  0
    0.5758   -5.9033   -2.2233 H   0  0  0  0  0  0
   -0.2169   -4.2990   -3.9158 H   0  0  0  0  0  0
    1.8440   -2.9752   -4.2397 H   0  0  0  0  0  0
    2.2228   -4.6135   -3.7246 H   0  0  0  0  0  0
    2.3338   -3.2853   -2.5757 H   0  0  0  0  0  0
    0.8116   -2.2271   -0.9189 H   0  0  0  0  0  0
   -2.9137   -0.5354   -3.7394 H   0  0  0  0  0  0
   -1.7760   -2.6436   -4.3411 H   0  0  0  0  0  0
   -2.8833    3.3777    0.5750 H   0  0  0  0  0  0
   -3.9408    2.8937   -0.7472 H   0  0  0  0  0  0
   -2.3410    3.5353   -1.0928 H   0  0  0  0  0  0
   -3.1708    0.9879    1.6037 H   0  0  0  0  0  0
   -2.8554   -0.4285    0.6122 H   0  0  0  0  0  0
   -4.2305    0.5988    0.2544 H   0  0  0  0  0  0
   -0.3289    2.2236   -0.5824 H   0  0  0  0  0  0
   -0.7605    1.9546    1.0874 H   0  0  0  0  0  0
    1.7194   -0.5978   -0.1773 H   0  0  0  0  0  0
    1.5697    1.8800    1.3903 H   0  0  0  0  0  0
    1.5863    0.2538    2.0479 H   0  0  0  0  0  0
    3.6110    2.5794    0.2587 H   0  0  0  0  0  0
    6.0940    1.6741    1.3968 H   0  0  0  0  0  0
    6.1471    1.9241    3.1091 H   0  0  0  0  0  0
    6.4507    0.1237    4.6694 H   0  0  0  0  0  0
    7.6628   -3.7220    3.1096 H   0  0  0  0  0  0
    7.0843   -2.9583    0.8234 H   0  0  0  0  0  0
    6.2091   -0.6639    0.4577 H   0  0  0  0  0  0
    9.0464   -1.5114    6.2686 H   0  0  0  0  0  0
    7.6787   -0.4436    6.2079 H   0  0  0  0  0  0
    7.7632   -3.0376    7.8236 H   0  0  0  0  0  0
    8.0696   -1.4429    8.4485 H   0  0  0  0  0  0
    5.8486   -1.8482    9.0570 H   0  0  0  0  0  0
    5.7277   -0.7439    7.7199 H   0  0  0  0  0  0
    5.1524   -2.7571    6.2035 H   0  0  0  0  0  0
    5.3706   -3.7856    7.5811 H   0  0  0  0  0  0
    4.3563   -0.8274    5.6752 H   0  0  0  0  0  0
    0.5096    1.1123    5.9568 H   0  0  0  0  0  0
   -1.0446    0.3608    7.6294 H   0  0  0  0  0  0
   -0.2943   -0.2904    9.0891 H   0  0  0  0  0  0
   -0.9855   -1.3860    7.8850 H   0  0  0  0  0  0
    4.0112   -0.2646    3.7435 H   0  0  0  0  0  0
    1.5673    0.9087   -0.7980 H   0  0  0  0  0  0
  1  2  1  0  0  0
  1 47  1  0  0  0
  1 48  1  0  0  0
  1 49  1  0  0  0
  2  3  1  0  0  0
  2  4  1  0  0  0
  2 50  1  0  0  0
  3 51  1  0  0  0
  3 52  1  0  0  0
  3 53  1  0  0  0
  4  9  1  0  0  0
  4  5  2  0  0  0
  5  6  1  0  0  0
  5 54  1  0  0  0
  6 15  1  0  0  0
  6  7  2  0  0  0
  7  8  1  0  0  0
  7 10  1  0  0  0
  8  9  2  0  0  0
  8 55  1  0  0  0
  9 56  1  0  0  0
 10 11  1  0  0  0
 11 12  1  0  0  0
 11 13  1  0  0  0
 11 14  1  0  0  0
 12 57  1  0  0  0
 12 58  1  0  0  0
 12 59  1  0  0  0
 13 60  1  0  0  0
 13 61  1  0  0  0
 13 62  1  0  0  0
 14 15  1  0  0  0
 14 63  1  0  0  0
 14 64  1  0  0  0
 15 44  1  0  0  0
 15 16  1  0  0  0
 16 17  1  0  0  0
 16 65  1  0  0  0
 16 89  1  0  0  0
 17 18  1  0  0  0
 17 66  1  0  0  0
 17 67  1  0  0  0
 18 45  1  0  0  0
 18 19  1  0  0  0
 18 20  1  0  0  0
 19 68  1  0  0  0
 20 46  1  0  0  0
 20 43  1  0  0  0
 20 21  1  0  0  0
 21 22  1  0  0  0
 21 69  1  0  0  0
 21 70  1  0  0  0
 22 27  1  0  0  0
 22 23  2  0  0  0
 23 24  1  0  0  0
 23 71  1  0  0  0
 24 25  2  0  0  0
 24 28  1  0  0  0
 25 26  1  0  0  0
 25 72  1  0  0  0
 26 27  2  0  0  0
 26 73  1  0  0  0
 27 74  1  0  0  0
 28 29  1  0  0  0
 29 30  1  0  0  0
 29 75  1  0  0  0
 29 76  1  0  0  0
 30 31  1  0  0  0
 30 77  1  0  0  0
 30 78  1  0  0  0
 31 32  1  0  0  0
 31 79  1  0  0  0
 31 80  1  0  0  0
 32 33  1  0  0  0
 32 81  1  0  0  0
 32 82  1  0  0  0
 33 34  1  0  0  0
 34 40  1  0  0  0
 34 35  2  0  0  0
 35 36  1  0  0  0
 35 83  1  0  0  0
 36 37  2  0  0  0
 36 41  1  0  0  0
 37 38  1  0  0  0
 37 84  1  0  0  0
 38 39  1  0  0  0
 38 40  2  0  0  0
 39 85  1  0  0  0
 39 86  1  0  0  0
 39 87  1  0  0  0
 41 42  2  0  0  0
 41 43  1  0  0  0
 43 88  1  0  0  0
M  CHG  1  16   1
M  END
> <s_m_source_file>
BACE_111.smi

> <i_m_source_file_index>
1

> <i_lp_mmshare_version>
42013

> <i_f3d_flags>
0

> <s_epik_input>
W0NIM11bQ0hdKFtDSDNdKWMoW2NIXTEpW2NIXVtjSF1jKGMxMilPQyhbQ0gzXSkoW0NIM10pW0NIMl1bQ0BASF0yW05IXVtDSDJdW0NAQEhdKFtPSF0pW0NASF0oW0NIMl0zKVtOSF1DKD1PKWMoW2NIXWMobjQpW0NIM10pW2NIXWM0T1tDSDJdW0NIMl1bQ0gyXVtDSDJdT2MoW2NIXWMzNSlbY0hdW2NIXVtjSF01

> <s_epik_cmdline>
J2VwaWtfcHl0aG9uJywgJy1waCcsICc3LjAnLCAnLXRuJywgJzgnLCAnLW1hJywgJzIwMCcsICctaW1hZScsICc8aW5maWxlLm1hZT4nLCAnLW9tYWUnLCAnPG91dGZpbGUubWFlPic=

> <r_lp_tautomer_probability>
1

> <r_epik_Ionization_Penalty>
0.020699

> <r_epik_Ionization_Penalty_Charging>
0.0206863

> <r_epik_Ionization_Penalty_Neutral>
1.27724e-05

> <r_epik_State_Penalty>
0.0165945

> <r_epik_Charging_Adjusted_Penalty>
0.0372807

> <i_epik_Tot_Q>
1

> <i_epik_Tot_abs_Q>
1

> <s_lp_Force_Field>
OPLS_2005

> <r_lp_Energy>
37.0547

> <b_lp_Chiralities_Consistent>
1

> <s_lp_Variant>
BACE_111.smi:1-1

$$$$
BACE_111.smi:1
                    3D
 Structure written by MMmdl.
 88 92  0  0  1  0            999 V2000
    1.3350   -5.1636   -3.4465 C   0  0  0  0  0  0
    0.9224   -4.9027   -1.9891 C   0  0  0  0  0  0
    0.1327   -6.0802   -1.3996 C   0  0  0  0  0  0
    0.1665   -3.5908   -1.8196 C   0  0  0  0  0  0
    0.5869   -2.6614   -0.8461 C   0  0  0  0  0  0
   -0.0918   -1.4347   -0.6714 C   0  0  0  0  0  0
   -1.2282   -1.1460   -1.4689 C   0  0  0  0  0  0
   -1.6446   -2.0745   -2.4432 C   0  0  0  0  0  0
   -0.9586   -3.2910   -2.6158 C   0  0  0  0  0  0
   -1.9451    0.0256   -1.3537 O   0  0  0  0  0  0
   -1.7835    0.8009   -0.1659 C   0  0  0  0  0  0
   -2.3637    2.1864   -0.4941 C   0  0  0  0  0  0
   -2.6032    0.1564    0.9719 C   0  0  0  0  0  0
   -0.2875    0.9315    0.1855 C   0  0  0  0  0  0
    0.3852   -0.4394    0.3788 C   0  0  2  0  0  0
    1.8479   -0.3342    0.4090 N   0  0  0  0  0  0
    2.3937    0.4910    1.4861 C   0  0  0  0  0  0
    3.9111    0.2666    1.6586 C   0  0  1  0  0  0
    4.4119    1.4309    2.2853 O   0  0  0  0  0  0
    4.3000   -0.9443    2.5539 C   0  0  2  0  0  0
    5.8283   -1.2330    2.5419 C   0  0  0  0  0  0
    6.2828   -2.1469    1.4075 C   0  0  0  0  0  0
    6.2696   -3.5501    1.5735 C   0  0  0  0  0  0
    6.5708   -4.4139    0.5005 C   0  0  0  0  0  0
    6.9480   -3.8464   -0.7429 C   0  0  0  0  0  0
    7.0030   -2.4482   -0.9020 C   0  0  0  0  0  0
    6.6647   -1.5989    0.1674 C   0  0  0  0  0  0
    6.4589   -5.7698    0.7319 O   0  0  0  0  0  0
    6.5119   -6.6400   -0.3922 C   0  0  0  0  0  0
    6.2652   -8.0958    0.0365 C   0  0  0  0  0  0
    4.9011   -8.3797    0.6965 C   0  0  0  0  0  0
    3.6756   -8.0417   -0.1770 C   0  0  0  0  0  0
    3.3909   -6.6443   -0.1293 O   0  0  0  0  0  0
    2.7859   -6.1238    0.9973 C   0  0  0  0  0  0
    2.9256   -4.7476    1.2548 C   0  0  0  0  0  0
    2.3632   -4.2030    2.4342 C   0  0  0  0  0  0
    1.6250   -5.0665    3.2726 C   0  0  0  0  0  0
    1.5140   -6.4262    2.9159 C   0  0  0  0  0  0
    0.7414   -7.3949    3.7861 C   0  0  0  0  0  0
    2.0898   -6.9511    1.8133 N   0  0  0  0  0  0
    2.5738   -2.7623    2.8138 C   0  0  0  0  0  0
    1.9165   -2.2256    3.7055 O   0  0  0  0  0  0
    3.5901   -2.1648    2.1751 N   0  0  0  0  0  0
    0.0531   -0.8470    1.3344 H   0  0  0  0  0  0
    4.3827    0.1868    0.6784 H   0  0  0  0  0  0
    4.0250   -0.6883    3.5792 H   0  0  0  0  0  0
    1.9300   -4.3379   -3.8382 H   0  0  0  0  0  0
    0.4717   -5.2945   -4.0988 H   0  0  0  0  0  0
    1.9402   -6.0676   -3.5210 H   0  0  0  0  0  0
    1.8491   -4.8160   -1.4233 H   0  0  0  0  0  0
   -0.0818   -5.9162   -0.3429 H   0  0  0  0  0  0
    0.6964   -7.0103   -1.4787 H   0  0  0  0  0  0
   -0.8177   -6.2215   -1.9153 H   0  0  0  0  0  0
    1.4425   -2.8908   -0.2301 H   0  0  0  0  0  0
   -2.5045   -1.8554   -3.0589 H   0  0  0  0  0  0
   -1.3047   -3.9917   -3.3610 H   0  0  0  0  0  0
   -2.2938    2.8582    0.3620 H   0  0  0  0  0  0
   -3.4149    2.1182   -0.7765 H   0  0  0  0  0  0
   -1.8322    2.6521   -1.3246 H   0  0  0  0  0  0
   -2.5118    0.7293    1.8950 H   0  0  0  0  0  0
   -2.2841   -0.8634    1.1857 H   0  0  0  0  0  0
   -3.6619    0.1122    0.7150 H   0  0  0  0  0  0
    0.2115    1.4567   -0.6309 H   0  0  0  0  0  0
   -0.1599    1.5507    1.0740 H   0  0  0  0  0  0
    2.2485   -1.2654    0.4569 H   0  0  0  0  0  0
    2.2015    1.5395    1.2548 H   0  0  0  0  0  0
    1.8841    0.2864    2.4286 H   0  0  0  0  0  0
    3.9924    1.5224    3.1270 H   0  0  0  0  0  0
    6.4058   -0.3083    2.5227 H   0  0  0  0  0  0
    6.0975   -1.7215    3.4793 H   0  0  0  0  0  0
    5.9681   -3.9736    2.5207 H   0  0  0  0  0  0
    7.1978   -4.4623   -1.5930 H   0  0  0  0  0  0
    7.2891   -2.0260   -1.8540 H   0  0  0  0  0  0
    6.6822   -0.5281    0.0269 H   0  0  0  0  0  0
    5.7810   -6.3412   -1.1448 H   0  0  0  0  0  0
    7.4987   -6.5791   -0.8532 H   0  0  0  0  0  0
    6.3716   -8.7377   -0.8387 H   0  0  0  0  0  0
    7.0561   -8.3980    0.7235 H   0  0  0  0  0  0
    4.8666   -9.4441    0.9291 H   0  0  0  0  0  0
    4.8373   -7.8708    1.6587 H   0  0  0  0  0  0
    3.8765   -8.3143   -1.2133 H   0  0  0  0  0  0
    2.8105   -8.6401    0.1113 H   0  0  0  0  0  0
    3.4944   -4.1443    0.5624 H   0  0  0  0  0  0
    1.1676   -4.7032    4.1818 H   0  0  0  0  0  0
    0.0588   -6.8652    4.4511 H   0  0  0  0  0  0
    1.4277   -7.9820    4.3964 H   0  0  0  0  0  0
    0.1528   -8.0792    3.1740 H   0  0  0  0  0  0
    4.0353   -2.7073    1.4487 H   0  0  0  0  0  0
  1  2  1  0  0  0
  1 47  1  0  0  0
  1 48  1  0  0  0
  1 49  1  0  0  0
  2  3  1  0  0  0
  2  4  1  0  0  0
  2 50  1  0  0  0
  3 51  1  0  0  0
  3 52  1  0  0  0
  3 53  1  0  0  0
  4  9  1  0  0  0
  4  5  2  0  0  0
  5  6  1  0  0  0
  5 54  1  0  0  0
  6 15  1  0  0  0
  6  7  2  0  0  0
  7  8  1  0  0  0
  7 10  1  0  0  0
  8  9  2  0  0  0
  8 55  1  0  0  0
  9 56  1  0  0  0
 10 11  1  0  0  0
 11 12  1  0  0  0
 11 13  1  0  0  0
 11 14  1  0  0  0
 12 57  1  0  0  0
 12 58  1  0  0  0
 12 59  1  0  0  0
 13 60  1  0  0  0
 13 61  1  0  0  0
 13 62  1  0  0  0
 14 15  1  0  0  0
 14 63  1  0  0  0
 14 64  1  0  0  0
 15 44  1  0  0  0
 15 16  1  0  0  0
 16 17  1  0  0  0
 16 65  1  0  0  0
 17 18  1  0  0  0
 17 66  1  0  0  0
 17 67  1  0  0  0
 18 45  1  0  0  0
 18 19  1  0  0  0
 18 20  1  0  0  0
 19 68  1  0  0  0
 20 46  1  0  0  0
 20 43  1  0  0  0
 20 21  1  0  0  0
 21 22  1  0  0  0
 21 69  1  0  0  0
 21 70  1  0  0  0
 22 27  1  0  0  0
 22 23  2  0  0  0
 23 24  1  0  0  0
 23 71  1  0  0  0
 24 25  2  0  0  0
 24 28  1  0  0  0
 25 26  1  0  0  0
 25 72  1  0  0  0
 26 27  2  0  0  0
 26 73  1  0  0  0
 27 74  1  0  0  0
 28 29  1  0  0  0
 29 30  1  0  0  0
 29 75  1  0  0  0
 29 76  1  0  0  0
 30 31  1  0  0  0
 30 77  1  0  0  0
 30 78  1  0  0  0
 31 32  1  0  0  0
 31 79  1  0  0  0
 31 80  1  0  0  0
 32 33  1  0  0  0
 32 81  1  0  0  0
 32 82  1  0  0  0
 33 34  1  0  0  0
 34 40  1  0  0  0
 34 35  2  0  0  0
 35 36  1  0  0  0
 35 83  1  0  0  0
 36 37  2  0  0  0
 36 41  1  0  0  0
 37 38  1  0  0  0
 37 84  1  0  0  0
 38 39  1  0  0  0
 38 40  2  0  0  0
 39 85  1  0  0  0
 39 86  1  0  0  0
 39 87  1  0  0  0
 41 42  2  0  0  0
 41 43  1  0  0  0
 43 88  1  0  0  0
M  END
> <s_m_source_file>
BACE_111.smi

> <i_m_source_file_index>
1

> <i_lp_mmshare_version>
42013

> <i_f3d_flags>
0

> <s_epik_input>
W0NIM11bQ0hdKFtDSDNdKWMoW2NIXTEpW2NIXVtjSF1jKGMxMilPQyhbQ0gzXSkoW0NIM10pW0NIMl1bQ0BASF0yW05IXVtDSDJdW0NAQEhdKFtPSF0pW0NASF0oW0NIMl0zKVtOSF1DKD1PKWMoW2NIXWMobjQpW0NIM10pW2NIXWM0T1tDSDJdW0NIMl1bQ0gyXVtDSDJdT2MoW2NIXWMzNSlbY0hdW2NIXVtjSF01

> <s_epik_cmdline>
J2VwaWtfcHl0aG9uJywgJy1waCcsICc3LjAnLCAnLXRuJywgJzgnLCAnLW1hJywgJzIwMCcsICctaW1hZScsICc8aW5maWxlLm1hZT4nLCAnLW9tYWUnLCAnPG91dGZpbGUubWFlPic=

> <r_lp_tautomer_probability>
1

> <r_epik_Ionization_Penalty>
1.99803

> <r_epik_Ionization_Penalty_Charging>
0

> <r_epik_Ionization_Penalty_Neutral>
1.99803

> <r_epik_State_Penalty>
2.12657

> <r_epik_Charging_Adjusted_Penalty>
2.12657

> <i_epik_Tot_Q>
0

> <i_epik_Tot_abs_Q>
0

> <s_lp_Force_Field>
OPLS_2005

> <r_lp_Energy>
33.5995

> <b_lp_Chiralities_Consistent>
1

> <s_lp_Variant>
BACE_111.smi:1-2

$$$$
