BACE_65.smi:1
                    3D
 Structure written by MMmdl.
 81 83  0  0  1  0            999 V2000
    5.3321    0.4391   -2.1916 C   0  0  0  0  0  0
    3.9285    0.6258   -2.1538 O   0  0  0  0  0  0
    3.4049    1.0938   -3.3894 C   0  0  0  0  0  0
    1.9070    1.3289   -3.3246 C   0  0  0  0  0  0
    1.1167    1.2160   -4.4884 C   0  0  0  0  0  0
   -0.2727    1.4607   -4.4427 C   0  0  0  0  0  0
   -0.8679    1.8040   -3.2076 C   0  0  0  0  0  0
   -0.0942    1.8688   -2.0320 C   0  0  0  0  0  0
    1.2988    1.6791   -2.1032 C   0  0  0  0  0  0
   -0.7645    2.1429   -0.7226 C   0  0  0  0  0  0
   -1.2391    3.2551   -0.5067 O   0  0  0  0  0  0
   -0.8607    1.1485    0.1848 N   0  0  0  0  0  0
   -0.4437   -0.2651    0.1519 C   0  0  1  0  0  0
   -0.9374   -1.0635   -1.0849 C   0  0  0  0  0  0
   -2.4381   -0.9614   -1.4482 C   0  0  2  0  0  0
   -3.3208   -1.6402   -0.3853 C   0  0  0  0  0  0
   -2.6530   -1.5570   -2.8574 C   0  0  0  0  0  0
   -4.0785   -1.4188   -3.4240 C   0  0  0  0  0  0
   -4.2051   -1.8793   -4.8901 C   0  0  0  0  0  0
   -3.4245   -1.0702   -5.9529 C   0  0  0  0  0  0
   -4.0016    0.3207   -6.2890 C   0  0  0  0  0  0
   -3.5234    1.4850   -5.3989 C   0  0  0  0  0  0
   -2.2023    2.1539   -5.8315 C   0  0  0  0  0  0
   -1.0152    1.3319   -5.6266 N   0  0  0  0  0  0
    1.0769   -0.4825    0.3960 C   0  0  2  0  0  0
    1.2543   -1.7843    0.9222 O   0  0  0  0  0  0
    1.7492    0.4949    1.3823 C   0  0  0  0  0  0
    3.2176    0.3403    1.3465 N   0  3  0  0  0  0
    3.9427    1.2502    2.2527 C   0  0  0  0  0  0
    5.4584    1.0382    2.1490 C   0  0  0  0  0  0
    6.2245    1.9573    3.0796 C   0  0  0  0  0  0
    6.6860    3.2129    2.6336 C   0  0  0  0  0  0
    7.3854    4.0323    3.5426 C   0  0  0  0  0  0
    7.6348    3.6765    4.8211 N   0  0  0  0  0  0
    7.1903    2.4724    5.2406 C   0  0  0  0  0  0
    6.4818    1.5781    4.4131 C   0  0  0  0  0  0
   -0.9556   -0.6782    1.0215 H   0  0  0  0  0  0
   -2.7200    0.0899   -1.4978 H   0  0  0  0  0  0
    1.6062   -0.4475   -0.5553 H   0  0  0  0  0  0
    5.6784    0.0723   -1.2255 H   0  0  0  0  0  0
    5.8487    1.3767   -2.4002 H   0  0  0  0  0  0
    5.6129   -0.2925   -2.9500 H   0  0  0  0  0  0
    3.8869    2.0319   -3.6683 H   0  0  0  0  0  0
    3.6208    0.3682   -4.1755 H   0  0  0  0  0  0
    1.5833    0.9496   -5.4259 H   0  0  0  0  0  0
   -1.9280    1.9846   -3.1333 H   0  0  0  0  0  0
    1.9003    1.7823   -1.2133 H   0  0  0  0  0  0
   -1.3370    1.4109    1.0359 H   0  0  0  0  0  0
   -0.3402   -0.7724   -1.9477 H   0  0  0  0  0  0
   -0.6977   -2.1175   -0.9386 H   0  0  0  0  0  0
   -3.1068   -2.7071   -0.3144 H   0  0  0  0  0  0
   -4.3806   -1.5266   -0.6119 H   0  0  0  0  0  0
   -3.1656   -1.2029    0.6004 H   0  0  0  0  0  0
   -1.9616   -1.0585   -3.5354 H   0  0  0  0  0  0
   -2.3660   -2.6094   -2.8598 H   0  0  0  0  0  0
   -4.7517   -2.0347   -2.8278 H   0  0  0  0  0  0
   -4.4477   -0.4023   -3.3074 H   0  0  0  0  0  0
   -3.8780   -2.9184   -4.9447 H   0  0  0  0  0  0
   -5.2604   -1.8957   -5.1641 H   0  0  0  0  0  0
   -2.3651   -1.0104   -5.7122 H   0  0  0  0  0  0
   -3.4626   -1.6553   -6.8723 H   0  0  0  0  0  0
   -3.7688    0.5625   -7.3266 H   0  0  0  0  0  0
   -5.0899    0.2638   -6.2475 H   0  0  0  0  0  0
   -4.2918    2.2574   -5.4423 H   0  0  0  0  0  0
   -3.4838    1.1864   -4.3573 H   0  0  0  0  0  0
   -2.2546    2.4166   -6.8884 H   0  0  0  0  0  0
   -2.0794    3.0979   -5.2989 H   0  0  0  0  0  0
   -0.5001    1.0838   -6.4593 H   0  0  0  0  0  0
    0.7262   -1.8714    1.7015 H   0  0  0  0  0  0
    1.5313    1.5292    1.1177 H   0  0  0  0  0  0
    1.3762    0.3408    2.3960 H   0  0  0  0  0  0
    3.4423   -0.6130    1.5944 H   0  0  0  0  0  0
    3.6927    2.2819    2.0012 H   0  0  0  0  0  0
    3.6093    1.0762    3.2768 H   0  0  0  0  0  0
    5.7108    0.0037    2.3865 H   0  0  0  0  0  0
    5.7923    1.2099    1.1247 H   0  0  0  0  0  0
    6.5102    3.5450    1.6209 H   0  0  0  0  0  0
    7.7527    5.0000    3.2346 H   0  0  0  0  0  0
    7.4036    2.2139    6.2672 H   0  0  0  0  0  0
    6.1457    0.6263    4.7975 H   0  0  0  0  0  0
    3.5326    0.5084    0.4013 H   0  0  0  0  0  0
  1  2  1  0  0  0
  1 40  1  0  0  0
  1 41  1  0  0  0
  1 42  1  0  0  0
  2  3  1  0  0  0
  3  4  1  0  0  0
  3 43  1  0  0  0
  3 44  1  0  0  0
  4  9  1  0  0  0
  4  5  2  0  0  0
  5  6  1  0  0  0
  5 45  1  0  0  0
  6 24  1  0  0  0
  6  7  2  0  0  0
  7  8  1  0  0  0
  7 46  1  0  0  0
  8  9  2  0  0  0
  8 10  1  0  0  0
  9 47  1  0  0  0
 10 11  2  0  0  0
 10 12  1  0  0  0
 12 13  1  0  0  0
 12 48  1  0  0  0
 13 37  1  0  0  0
 13 14  1  0  0  0
 13 25  1  0  0  0
 14 15  1  0  0  0
 14 49  1  0  0  0
 14 50  1  0  0  0
 15 38  1  0  0  0
 15 16  1  0  0  0
 15 17  1  0  0  0
 16 51  1  0  0  0
 16 52  1  0  0  0
 16 53  1  0  0  0
 17 18  1  0  0  0
 17 54  1  0  0  0
 17 55  1  0  0  0
 18 19  1  0  0  0
 18 56  1  0  0  0
 18 57  1  0  0  0
 19 20  1  0  0  0
 19 58  1  0  0  0
 19 59  1  0  0  0
 20 21  1  0  0  0
 20 60  1  0  0  0
 20 61  1  0  0  0
 21 22  1  0  0  0
 21 62  1  0  0  0
 21 63  1  0  0  0
 22 23  1  0  0  0
 22 64  1  0  0  0
 22 65  1  0  0  0
 23 24  1  0  0  0
 23 66  1  0  0  0
 23 67  1  0  0  0
 24 68  1  0  0  0
 25 39  1  0  0  0
 25 26  1  0  0  0
 25 27  1  0  0  0
 26 69  1  0  0  0
 27 28  1  0  0  0
 27 70  1  0  0  0
 27 71  1  0  0  0
 28 29  1  0  0  0
 28 72  1  0  0  0
 28 81  1  0  0  0
 29 30  1  0  0  0
 29 73  1  0  0  0
 29 74  1  0  0  0
 30 31  1  0  0  0
 30 75  1  0  0  0
 30 76  1  0  0  0
 31 36  1  0  0  0
 31 32  2  0  0  0
 32 33  1  0  0  0
 32 77  1  0  0  0
 33 34  2  0  0  0
 33 78  1  0  0  0
 34 35  1  0  0  0
 35 36  2  0  0  0
 35 79  1  0  0  0
 36 80  1  0  0  0
M  CHG  1  28   1
M  END
> <s_m_source_file>
BACE_65.smi

> <i_m_source_file_index>
1

> <i_lp_mmshare_version>
42013

> <i_f3d_flags>
0

> <s_epik_input>
W05IXTFbQ0gyXVtDSDJdW0NIMl1bQ0gyXVtDSDJdW0NIMl1bQ0gyXVtDQEBIXShbQ0gzXSlbQ0gyXVtDQEhdKFtOSF1DKD1PKWMoW2NIXTIpW2NIXWMoW2NIXWMxMilbQ0gyXU9bQ0gzXSlbQ0BIXShbT0hdKVtDSDJdW05IXVtDSDJdW0NIMl1jM1tjSF1bY0hdbltjSF1bY0hdMw==

> <s_epik_cmdline>
J2VwaWtfcHl0aG9uJywgJy1waCcsICc3LjAnLCAnLXRuJywgJzgnLCAnLW1hJywgJzIwMCcsICctaW1hZScsICc8aW5maWxlLm1hZT4nLCAnLW9tYWUnLCAnPG91dGZpbGUubWFlPic=

> <r_epik_Ionization_Penalty>
0.0113519

> <r_epik_Ionization_Penalty_Charging>
0.00943956

> <r_epik_Ionization_Penalty_Neutral>
0.00191231

> <r_epik_State_Penalty>
0.00716847

> <r_epik_Charging_Adjusted_Penalty>
0.016608

> <i_epik_Tot_Q>
1

> <i_epik_Tot_abs_Q>
1

> <s_lp_Force_Field>
OPLS_2005

> <r_lp_Energy>
37.6189

> <b_lp_Chiralities_Consistent>
1

> <s_lp_Variant>
BACE_65.smi:1-1

$$$$
BACE_65.smi:1
                    3D
 Structure written by MMmdl.
 80 82  0  0  1  0            999 V2000
    4.1003    3.1148   -4.5474 C   0  0  0  0  0  0
    3.9611    1.7117   -4.7091 O   0  0  0  0  0  0
    3.3641    1.0671   -3.5926 C   0  0  0  0  0  0
    1.8820    1.3655   -3.4462 C   0  0  0  0  0  0
    1.0348    1.3240   -4.5732 C   0  0  0  0  0  0
   -0.3404    1.6104   -4.4514 C   0  0  0  0  0  0
   -0.8659    1.9119   -3.1743 C   0  0  0  0  0  0
   -0.0391    1.8890   -2.0328 C   0  0  0  0  0  0
    1.3425    1.6512   -2.1766 C   0  0  0  0  0  0
   -0.6455    2.1348   -0.6864 C   0  0  0  0  0  0
   -1.1101    3.2427   -0.4289 O   0  0  0  0  0  0
   -0.7145    1.1238    0.2043 N   0  0  0  0  0  0
   -0.2849   -0.2844    0.1505 C   0  0  1  0  0  0
   -0.7510   -1.0696   -1.1070 C   0  0  0  0  0  0
   -2.2576   -1.0130   -1.4582 C   0  0  2  0  0  0
   -3.1036   -1.7730   -0.4196 C   0  0  0  0  0  0
   -2.4648   -1.5549   -2.8909 C   0  0  0  0  0  0
   -3.9131   -1.5012   -3.4147 C   0  0  0  0  0  0
   -4.0510   -1.8962   -4.8984 C   0  0  0  0  0  0
   -3.3860   -0.9631   -5.9359 C   0  0  0  0  0  0
   -4.0799    0.3994   -6.1420 C   0  0  0  0  0  0
   -3.6190    1.5378   -5.2100 C   0  0  0  0  0  0
   -2.3784    2.3196   -5.6875 C   0  0  0  0  0  0
   -1.1324    1.5672   -5.6093 N   0  0  0  0  0  0
    1.2303   -0.4863    0.4372 C   0  0  2  0  0  0
    1.3968   -1.8044    0.9241 O   0  0  0  0  0  0
    1.8312    0.4578    1.5024 C   0  0  0  0  0  0
    3.2909    0.4238    1.4714 N   0  0  0  0  0  0
    3.9161    1.3269    2.4311 C   0  0  0  0  0  0
    5.4455    1.2622    2.3297 C   0  0  0  0  0  0
    6.1216    2.1755    3.3335 C   0  0  0  0  0  0
    6.4715    3.4969    2.9866 C   0  0  0  0  0  0
    7.0939    4.3042    3.9602 C   0  0  0  0  0  0
    7.3718    3.8772    5.2109 N   0  0  0  0  0  0
    7.0331    2.6108    5.5358 C   0  0  0  0  0  0
    6.4082    1.7223    4.6377 C   0  0  0  0  0  0
   -0.8104   -0.7156    1.0029 H   0  0  0  0  0  0
   -2.5818    0.0275   -1.4586 H   0  0  0  0  0  0
    1.7935   -0.4031   -0.4911 H   0  0  0  0  0  0
    4.5826    3.5360   -5.4292 H   0  0  0  0  0  0
    4.7184    3.3519   -3.6807 H   0  0  0  0  0  0
    3.1331    3.6054   -4.4314 H   0  0  0  0  0  0
    3.4745   -0.0092   -3.7257 H   0  0  0  0  0  0
    3.9029    1.3217   -2.6784 H   0  0  0  0  0  0
    1.4496    1.0859   -5.5422 H   0  0  0  0  0  0
   -1.9142    2.1292   -3.0433 H   0  0  0  0  0  0
    1.9889    1.6806   -1.3121 H   0  0  0  0  0  0
   -1.1523    1.3761    1.0785 H   0  0  0  0  0  0
   -0.1677   -0.7406   -1.9653 H   0  0  0  0  0  0
   -0.4753   -2.1179   -0.9867 H   0  0  0  0  0  0
   -2.8566   -2.8351   -0.4081 H   0  0  0  0  0  0
   -4.1697   -1.6804   -0.6248 H   0  0  0  0  0  0
   -2.9479   -1.3842    0.5859 H   0  0  0  0  0  0
   -1.8301   -0.9747   -3.5596 H   0  0  0  0  0  0
   -2.1015   -2.5815   -2.9510 H   0  0  0  0  0  0
   -4.5183   -2.1979   -2.8350 H   0  0  0  0  0  0
   -4.3568   -0.5240   -3.2363 H   0  0  0  0  0  0
   -3.6373   -2.8975   -5.0226 H   0  0  0  0  0  0
   -5.1103   -1.9910   -5.1396 H   0  0  0  0  0  0
   -2.3234   -0.8407   -5.7359 H   0  0  0  0  0  0
   -3.4272   -1.4862   -6.8920 H   0  0  0  0  0  0
   -3.9376    0.7203   -7.1747 H   0  0  0  0  0  0
   -5.1563    0.2619   -6.0333 H   0  0  0  0  0  0
   -4.4375    2.2553   -5.1486 H   0  0  0  0  0  0
   -3.4798    1.1787   -4.1956 H   0  0  0  0  0  0
   -2.5199    2.6359   -6.7212 H   0  0  0  0  0  0
   -2.2770    3.2383   -5.1085 H   0  0  0  0  0  0
   -0.6638    1.3732   -6.4826 H   0  0  0  0  0  0
    0.9300   -1.8838    1.7415 H   0  0  0  0  0  0
    1.5170    1.4836    1.3128 H   0  0  0  0  0  0
    1.4583    0.2018    2.4951 H   0  0  0  0  0  0
    3.6205    0.6329    0.5345 H   0  0  0  0  0  0
    3.5845    2.3503    2.2506 H   0  0  0  0  0  0
    3.6030    1.0678    3.4432 H   0  0  0  0  0  0
    5.7894    0.2401    2.4951 H   0  0  0  0  0  0
    5.7676    1.5368    1.3242 H   0  0  0  0  0  0
    6.2681    3.8861    1.9998 H   0  0  0  0  0  0
    7.3745    5.3210    3.7284 H   0  0  0  0  0  0
    7.2658    2.2960    6.5424 H   0  0  0  0  0  0
    6.1549    0.7185    4.9461 H   0  0  0  0  0  0
  1  2  1  0  0  0
  1 40  1  0  0  0
  1 41  1  0  0  0
  1 42  1  0  0  0
  2  3  1  0  0  0
  3  4  1  0  0  0
  3 43  1  0  0  0
  3 44  1  0  0  0
  4  9  1  0  0  0
  4  5  2  0  0  0
  5  6  1  0  0  0
  5 45  1  0  0  0
  6 24  1  0  0  0
  6  7  2  0  0  0
  7  8  1  0  0  0
  7 46  1  0  0  0
  8  9  2  0  0  0
  8 10  1  0  0  0
  9 47  1  0  0  0
 10 11  2  0  0  0
 10 12  1  0  0  0
 12 13  1  0  0  0
 12 48  1  0  0  0
 13 37  1  0  0  0
 13 14  1  0  0  0
 13 25  1  0  0  0
 14 15  1  0  0  0
 14 49  1  0  0  0
 14 50  1  0  0  0
 15 38  1  0  0  0
 15 16  1  0  0  0
 15 17  1  0  0  0
 16 51  1  0  0  0
 16 52  1  0  0  0
 16 53  1  0  0  0
 17 18  1  0  0  0
 17 54  1  0  0  0
 17 55  1  0  0  0
 18 19  1  0  0  0
 18 56  1  0  0  0
 18 57  1  0  0  0
 19 20  1  0  0  0
 19 58  1  0  0  0
 19 59  1  0  0  0
 20 21  1  0  0  0
 20 60  1  0  0  0
 20 61  1  0  0  0
 21 22  1  0  0  0
 21 62  1  0  0  0
 21 63  1  0  0  0
 22 23  1  0  0  0
 22 64  1  0  0  0
 22 65  1  0  0  0
 23 24  1  0  0  0
 23 66  1  0  0  0
 23 67  1  0  0  0
 24 68  1  0  0  0
 25 39  1  0  0  0
 25 26  1  0  0  0
 25 27  1  0  0  0
 26 69  1  0  0  0
 27 28  1  0  0  0
 27 70  1  0  0  0
 27 71  1  0  0  0
 28 29  1  0  0  0
 28 72  1  0  0  0
 29 30  1  0  0  0
 29 73  1  0  0  0
 29 74  1  0  0  0
 30 31  1  0  0  0
 30 75  1  0  0  0
 30 76  1  0  0  0
 31 36  1  0  0  0
 31 32  2  0  0  0
 32 33  1  0  0  0
 32 77  1  0  0  0
 33 34  2  0  0  0
 33 78  1  0  0  0
 34 35  1  0  0  0
 35 36  2  0  0  0
 35 79  1  0  0  0
 36 80  1  0  0  0
M  END
> <s_m_source_file>
BACE_65.smi

> <i_m_source_file_index>
1

> <i_lp_mmshare_version>
42013

> <i_f3d_flags>
0

> <s_epik_input>
W05IXTFbQ0gyXVtDSDJdW0NIMl1bQ0gyXVtDSDJdW0NIMl1bQ0gyXVtDQEBIXShbQ0gzXSlbQ0gyXVtDQEhdKFtOSF1DKD1PKWMoW2NIXTIpW2NIXWMoW2NIXWMxMilbQ0gyXU9bQ0gzXSlbQ0BIXShbT0hdKVtDSDJdW05IXVtDSDJdW0NIMl1jM1tjSF1bY0hdbltjSF1bY0hdMw==

> <s_epik_cmdline>
J2VwaWtfcHl0aG9uJywgJy1waCcsICc3LjAnLCAnLXRuJywgJzgnLCAnLW1hJywgJzIwMCcsICctaW1hZScsICc8aW5maWxlLm1hZT4nLCAnLW9tYWUnLCAnPG91dGZpbGUubWFlPic=

> <r_epik_Ionization_Penalty>
2.55089

> <r_epik_Ionization_Penalty_Charging>
0

> <r_epik_Ionization_Penalty_Neutral>
2.55089

> <r_epik_State_Penalty>
2.61919

> <r_epik_Charging_Adjusted_Penalty>
2.61919

> <i_epik_Tot_Q>
0

> <i_epik_Tot_abs_Q>
0

> <s_lp_Force_Field>
OPLS_2005

> <r_lp_Energy>
45.489

> <b_lp_Chiralities_Consistent>
1

> <s_lp_Variant>
BACE_65.smi:1-2

$$$$
