BACE_90.smi:1
                    3D
 Structure written by MMmdl.
 75 78  0  0  1  0            999 V2000
    1.3033    2.0335   -4.4275 C   0  0  0  0  0  0
    0.3673    2.5995   -3.3427 C   0  0  1  0  0  0
   -0.0321    1.5903   -2.2437 C   0  0  0  0  0  0
   -0.3904    0.4602   -2.5736 O   0  0  0  0  0  0
   -0.0416    2.0083   -0.9642 N   0  0  0  0  0  0
   -0.5977    1.3124    0.2020 C   0  0  1  0  0  0
   -2.1466    1.3382    0.1699 C   0  0  0  0  0  0
   -2.7177    2.7482    0.1199 C   0  0  0  0  0  0
   -3.1006    3.4002    1.3092 C   0  0  0  0  0  0
   -3.5993    4.7156    1.2619 C   0  0  0  0  0  0
   -3.6974    5.3940    0.0313 C   0  0  0  0  0  0
   -3.3010    4.7544   -1.1693 C   0  0  0  0  0  0
   -2.8431    3.4243   -1.1117 C   0  0  0  0  0  0
   -3.3145    5.3467   -2.4123 O   0  0  0  0  0  0
   -3.6578    6.7195   -2.5089 C   0  0  0  0  0  0
   -3.3246    7.2300   -3.9196 C   0  0  0  0  0  0
   -1.8236    7.5029   -4.1570 C   0  0  0  0  0  0
   -1.0968    6.4982   -5.0792 C   0  0  0  0  0  0
   -0.7497    5.1175   -4.4759 C   0  0  0  0  0  0
    0.3625    5.1191   -3.4046 C   0  0  0  0  0  0
    0.8204    6.2000   -3.0294 O   0  0  0  0  0  0
    0.8269    3.9414   -2.9068 N   0  0  0  0  0  0
    1.9664    3.9847   -1.9801 C   0  0  0  0  0  0
   -0.0112   -0.1095    0.4269 C   0  0  2  0  0  0
   -0.3679   -0.5935    1.7076 O   0  0  0  0  0  0
    1.5214   -0.2338    0.2917 C   0  0  0  0  0  0
    2.2345    0.7255    1.1371 N   0  0  0  0  0  0
    3.6918    0.6107    1.0994 C   0  0  0  0  0  0
    4.3385   -0.6461    1.6423 C   0  0  0  0  0  0
    4.4111    0.6407    2.4298 C   0  0  0  0  0  0
    4.2912    1.3336   -0.0713 C   0  0  0  0  0  0
    4.4863    0.6706   -1.3024 C   0  0  0  0  0  0
    5.0438    1.3514   -2.4017 C   0  0  0  0  0  0
    5.4138    2.7038   -2.2781 C   0  0  0  0  0  0
    5.2211    3.3742   -1.0553 C   0  0  0  0  0  0
    5.7004    5.2081   -0.8899 Br  0  0  0  0  0  0
    4.6595    2.6916    0.0414 C   0  0  0  0  0  0
   -0.5923    2.7080   -3.8431 H   0  0  0  0  0  0
   -0.2891    1.9205    1.0536 H   0  0  0  0  0  0
   -0.4622   -0.7961   -0.2896 H   0  0  0  0  0  0
    0.9385    1.0834   -4.8189 H   0  0  0  0  0  0
    2.3074    1.8657   -4.0368 H   0  0  0  0  0  0
    1.3874    2.7192   -5.2711 H   0  0  0  0  0  0
    0.2838    2.9491   -0.7944 H   0  0  0  0  0  0
   -2.5172    0.7747   -0.6874 H   0  0  0  0  0  0
   -2.5484    0.8368    1.0509 H   0  0  0  0  0  0
   -3.0099    2.8965    2.2604 H   0  0  0  0  0  0
   -3.8969    5.2111    2.1743 H   0  0  0  0  0  0
   -4.0741    6.4054    0.0349 H   0  0  0  0  0  0
   -2.5534    2.9315   -2.0276 H   0  0  0  0  0  0
   -4.7265    6.8282   -2.3194 H   0  0  0  0  0  0
   -3.1268    7.3230   -1.7713 H   0  0  0  0  0  0
   -3.7299    6.5587   -4.6775 H   0  0  0  0  0  0
   -3.8560    8.1730   -4.0535 H   0  0  0  0  0  0
   -1.7480    8.4782   -4.6393 H   0  0  0  0  0  0
   -1.2996    7.6243   -3.2097 H   0  0  0  0  0  0
   -1.6961    6.3496   -5.9780 H   0  0  0  0  0  0
   -0.1739    6.9607   -5.4320 H   0  0  0  0  0  0
   -1.6491    4.6546   -4.0761 H   0  0  0  0  0  0
   -0.4155    4.4810   -5.2956 H   0  0  0  0  0  0
    1.6691    4.4047   -1.0184 H   0  0  0  0  0  0
    2.7801    4.5907   -2.3820 H   0  0  0  0  0  0
    2.3795    2.9934   -1.7977 H   0  0  0  0  0  0
   -1.3107   -0.6191    1.7666 H   0  0  0  0  0  0
    1.8190   -1.2523    0.5428 H   0  0  0  0  0  0
    1.8066   -0.0881   -0.7497 H   0  0  0  0  0  0
    1.9017    0.6714    2.0945 H   0  0  0  0  0  0
    3.7008   -1.4276    2.0508 H   0  0  0  0  0  0
    5.2546   -0.9930    1.1683 H   0  0  0  0  0  0
    5.3795    1.1349    2.4809 H   0  0  0  0  0  0
    3.8140    0.6909    3.3385 H   0  0  0  0  0  0
    4.2048   -0.3671   -1.4057 H   0  0  0  0  0  0
    5.1871    0.8359   -3.3397 H   0  0  0  0  0  0
    5.8397    3.2269   -3.1215 H   0  0  0  0  0  0
    4.5078    3.2146    0.9742 H   0  0  0  0  0  0
  1  2  1  0  0  0
  1 41  1  0  0  0
  1 42  1  0  0  0
  1 43  1  0  0  0
  2 38  1  0  0  0
  2 22  1  0  0  0
  2  3  1  0  0  0
  3  4  2  0  0  0
  3  5  1  0  0  0
  5  6  1  0  0  0
  5 44  1  0  0  0
  6 39  1  0  0  0
  6  7  1  0  0  0
  6 24  1  0  0  0
  7  8  1  0  0  0
  7 45  1  0  0  0
  7 46  1  0  0  0
  8 13  1  0  0  0
  8  9  2  0  0  0
  9 10  1  0  0  0
  9 47  1  0  0  0
 10 11  2  0  0  0
 10 48  1  0  0  0
 11 12  1  0  0  0
 11 49  1  0  0  0
 12 13  2  0  0  0
 12 14  1  0  0  0
 13 50  1  0  0  0
 14 15  1  0  0  0
 15 16  1  0  0  0
 15 51  1  0  0  0
 15 52  1  0  0  0
 16 17  1  0  0  0
 16 53  1  0  0  0
 16 54  1  0  0  0
 17 18  1  0  0  0
 17 55  1  0  0  0
 17 56  1  0  0  0
 18 19  1  0  0  0
 18 57  1  0  0  0
 18 58  1  0  0  0
 19 20  1  0  0  0
 19 59  1  0  0  0
 19 60  1  0  0  0
 20 21  2  0  0  0
 20 22  1  0  0  0
 22 23  1  0  0  0
 23 61  1  0  0  0
 23 62  1  0  0  0
 23 63  1  0  0  0
 24 40  1  0  0  0
 24 25  1  0  0  0
 24 26  1  0  0  0
 25 64  1  0  0  0
 26 27  1  0  0  0
 26 65  1  0  0  0
 26 66  1  0  0  0
 27 28  1  0  0  0
 27 67  1  0  0  0
 28 30  1  0  0  0
 28 29  1  0  0  0
 28 31  1  0  0  0
 29 30  1  0  0  0
 29 68  1  0  0  0
 29 69  1  0  0  0
 30 70  1  0  0  0
 30 71  1  0  0  0
 31 37  1  0  0  0
 31 32  2  0  0  0
 32 33  1  0  0  0
 32 72  1  0  0  0
 33 34  2  0  0  0
 33 73  1  0  0  0
 34 35  1  0  0  0
 34 74  1  0  0  0
 35 36  1  0  0  0
 35 37  2  0  0  0
 37 75  1  0  0  0
M  END
> <s_m_source_file>
BACE_90.smi

> <i_m_source_file_index>
1

> <i_lp_mmshare_version>
42013

> <i_f3d_flags>
0

> <s_epik_input>
QnJjKFtjSF0xKVtjSF1bY0hdW2NIXWMxQzIoW0NIMl1bQ0gyXTIpW05IXVtDSDJdW0NAQEhdKFtPSF0pW0NASF0oW0NIMl0zKVtOSF1DKD1PKVtDQEhdKFtDSDNdKU4oW0NIM10pQyg9TylbQ0gyXVtDSDJdW0NIMl1bQ0gyXVtDSDJdT2MoW2NIXTQpW2NIXVtjSF1bY0hdYzM0

> <s_epik_cmdline>
J2VwaWtfcHl0aG9uJywgJy1waCcsICc3LjAnLCAnLXRuJywgJzgnLCAnLW1hJywgJzIwMCcsICctaW1hZScsICc8aW5maWxlLm1hZT4nLCAnLW9tYWUnLCAnPG91dGZpbGUubWFlPic=

> <r_lp_tautomer_probability>
1

> <r_epik_Ionization_Penalty>
0.252951

> <r_epik_Ionization_Penalty_Charging>
0

> <r_epik_Ionization_Penalty_Neutral>
0.252951

> <r_epik_State_Penalty>
0.244368

> <r_epik_Charging_Adjusted_Penalty>
0.244368

> <i_epik_Tot_Q>
0

> <i_epik_Tot_abs_Q>
0

> <s_lp_Force_Field>
OPLS_2005

> <r_lp_Energy>
50.7786

> <b_lp_Chiralities_Consistent>
1

> <s_lp_Variant>
BACE_90.smi:1-1

$$$$
BACE_90.smi:1
                    3D
 Structure written by MMmdl.
 76 79  0  0  1  0            999 V2000
    1.2796    2.0859   -4.5537 C   0  0  0  0  0  0
    0.3931    2.6480   -3.4260 C   0  0  1  0  0  0
    0.0037    1.6308   -2.3322 C   0  0  0  0  0  0
   -0.2576    0.4715   -2.6521 O   0  0  0  0  0  0
   -0.0888    2.0721   -1.0634 N   0  0  0  0  0  0
   -0.6463    1.3621    0.0934 C   0  0  1  0  0  0
   -2.1941    1.3271    0.0108 C   0  0  0  0  0  0
   -2.8142    2.7170   -0.0272 C   0  0  0  0  0  0
   -3.2863    3.3144    1.1588 C   0  0  0  0  0  0
   -3.8183    4.6173    1.1280 C   0  0  0  0  0  0
   -3.8603    5.3386   -0.0813 C   0  0  0  0  0  0
   -3.3770    4.7536   -1.2777 C   0  0  0  0  0  0
   -2.8899    3.4331   -1.2403 C   0  0  0  0  0  0
   -3.3300    5.3934   -2.4961 O   0  0  0  0  0  0
   -3.6472    6.7750   -2.5487 C   0  0  0  0  0  0
   -3.2438    7.3415   -3.9190 C   0  0  0  0  0  0
   -1.7286    7.5884   -4.0880 C   0  0  0  0  0  0
   -0.9970    6.6187   -5.0425 C   0  0  0  0  0  0
   -0.6706    5.2145   -4.4858 C   0  0  0  0  0  0
    0.4530    5.1655   -3.4277 C   0  0  0  0  0  0
    0.9345    6.2265   -3.0260 O   0  0  0  0  0  0
    0.9009    3.9653   -2.9704 N   0  0  0  0  0  0
    2.0567    3.9541   -2.0599 C   0  0  0  0  0  0
   -0.0039   -0.0291    0.3533 C   0  0  2  0  0  0
   -0.3911   -0.4645    1.6428 O   0  0  0  0  0  0
    1.5392   -0.0210    0.3310 C   0  0  0  0  0  0
    2.0835   -1.3934    0.3978 N   0  3  0  0  0  0
    3.5508   -1.4871    0.2410 C   0  0  0  0  0  0
    4.0064   -1.5228   -1.1997 C   0  0  0  0  0  0
    3.9888   -2.7941   -0.3759 C   0  0  0  0  0  0
    4.3417   -0.8277    1.3313 C   0  0  0  0  0  0
    4.5906   -1.5083    2.5421 C   0  0  0  0  0  0
    5.3265   -0.8896    3.5712 C   0  0  0  0  0  0
    5.8191    0.4176    3.3968 C   0  0  0  0  0  0
    5.5764    1.1033    2.1914 C   0  0  0  0  0  0
    6.2371    2.8709    1.9492 Br  0  0  0  0  0  0
    4.8418    0.4816    1.1634 C   0  0  0  0  0  0
   -0.5794    2.7904   -3.8918 H   0  0  0  0  0  0
   -0.3852    1.9900    0.9469 H   0  0  0  0  0  0
   -0.3791   -0.7504   -0.3734 H   0  0  0  0  0  0
    0.8704    1.1636   -4.9674 H   0  0  0  0  0  0
    2.2867    1.8700   -4.1959 H   0  0  0  0  0  0
    1.3670    2.7960   -5.3765 H   0  0  0  0  0  0
    0.1514    3.0406   -0.9054 H   0  0  0  0  0  0
   -2.5152    0.7699   -0.8703 H   0  0  0  0  0  0
   -2.6073    0.7922    0.8663 H   0  0  0  0  0  0
   -3.2369    2.7794    2.0959 H   0  0  0  0  0  0
   -4.1825    5.0711    2.0377 H   0  0  0  0  0  0
   -4.2628    6.3400   -0.0651 H   0  0  0  0  0  0
   -2.5338    2.9827   -2.1544 H   0  0  0  0  0  0
   -4.7218    6.8943   -2.4030 H   0  0  0  0  0  0
   -3.1410    7.3355   -1.7611 H   0  0  0  0  0  0
   -3.6345    6.7147   -4.7213 H   0  0  0  0  0  0
   -3.7480    8.3022   -4.0297 H   0  0  0  0  0  0
   -1.6118    8.5870   -4.5106 H   0  0  0  0  0  0
   -1.2340    7.6398   -3.1184 H   0  0  0  0  0  0
   -1.5842    6.5100   -5.9549 H   0  0  0  0  0  0
   -0.0659    7.0872   -5.3649 H   0  0  0  0  0  0
   -1.5748    4.7584   -4.0890 H   0  0  0  0  0  0
   -0.3576    4.5954   -5.3269 H   0  0  0  0  0  0
    1.7790    4.3528   -1.0832 H   0  0  0  0  0  0
    2.8754    4.5582   -2.4547 H   0  0  0  0  0  0
    2.4572    2.9510   -1.9097 H   0  0  0  0  0  0
   -1.3355   -0.4962    1.6801 H   0  0  0  0  0  0
    1.9118    0.4277   -0.5890 H   0  0  0  0  0  0
    1.9265    0.5822    1.1532 H   0  0  0  0  0  0
    1.8237   -1.7965    1.2870 H   0  0  0  0  0  0
    3.2577   -1.4361   -1.9849 H   0  0  0  0  0  0
    4.9809   -1.1002   -1.4368 H   0  0  0  0  0  0
    4.9542   -3.2006   -0.0804 H   0  0  0  0  0  0
    3.2301   -3.5324   -0.6289 H   0  0  0  0  0  0
    4.2153   -2.5113    2.6853 H   0  0  0  0  0  0
    5.5123   -1.4177    4.4949 H   0  0  0  0  0  0
    6.3822    0.8921    4.1871 H   0  0  0  0  0  0
    4.6583    1.0159    0.2425 H   0  0  0  0  0  0
    1.6548   -1.9364   -0.3378 H   0  0  0  0  0  0
  1  2  1  0  0  0
  1 41  1  0  0  0
  1 42  1  0  0  0
  1 43  1  0  0  0
  2 38  1  0  0  0
  2 22  1  0  0  0
  2  3  1  0  0  0
  3  4  2  0  0  0
  3  5  1  0  0  0
  5  6  1  0  0  0
  5 44  1  0  0  0
  6 39  1  0  0  0
  6  7  1  0  0  0
  6 24  1  0  0  0
  7  8  1  0  0  0
  7 45  1  0  0  0
  7 46  1  0  0  0
  8 13  1  0  0  0
  8  9  2  0  0  0
  9 10  1  0  0  0
  9 47  1  0  0  0
 10 11  2  0  0  0
 10 48  1  0  0  0
 11 12  1  0  0  0
 11 49  1  0  0  0
 12 13  2  0  0  0
 12 14  1  0  0  0
 13 50  1  0  0  0
 14 15  1  0  0  0
 15 16  1  0  0  0
 15 51  1  0  0  0
 15 52  1  0  0  0
 16 17  1  0  0  0
 16 53  1  0  0  0
 16 54  1  0  0  0
 17 18  1  0  0  0
 17 55  1  0  0  0
 17 56  1  0  0  0
 18 19  1  0  0  0
 18 57  1  0  0  0
 18 58  1  0  0  0
 19 20  1  0  0  0
 19 59  1  0  0  0
 19 60  1  0  0  0
 20 21  2  0  0  0
 20 22  1  0  0  0
 22 23  1  0  0  0
 23 61  1  0  0  0
 23 62  1  0  0  0
 23 63  1  0  0  0
 24 40  1  0  0  0
 24 25  1  0  0  0
 24 26  1  0  0  0
 25 64  1  0  0  0
 26 27  1  0  0  0
 26 65  1  0  0  0
 26 66  1  0  0  0
 27 28  1  0  0  0
 27 67  1  0  0  0
 27 76  1  0  0  0
 28 30  1  0  0  0
 28 29  1  0  0  0
 28 31  1  0  0  0
 29 30  1  0  0  0
 29 68  1  0  0  0
 29 69  1  0  0  0
 30 70  1  0  0  0
 30 71  1  0  0  0
 31 37  1  0  0  0
 31 32  2  0  0  0
 32 33  1  0  0  0
 32 72  1  0  0  0
 33 34  2  0  0  0
 33 73  1  0  0  0
 34 35  1  0  0  0
 34 74  1  0  0  0
 35 36  1  0  0  0
 35 37  2  0  0  0
 37 75  1  0  0  0
M  CHG  1  27   1
M  END
> <s_m_source_file>
BACE_90.smi

> <i_m_source_file_index>
1

> <i_lp_mmshare_version>
42013

> <i_f3d_flags>
0

> <s_epik_input>
QnJjKFtjSF0xKVtjSF1bY0hdW2NIXWMxQzIoW0NIMl1bQ0gyXTIpW05IXVtDSDJdW0NAQEhdKFtPSF0pW0NASF0oW0NIMl0zKVtOSF1DKD1PKVtDQEhdKFtDSDNdKU4oW0NIM10pQyg9TylbQ0gyXVtDSDJdW0NIMl1bQ0gyXVtDSDJdT2MoW2NIXTQpW2NIXVtjSF1bY0hdYzM0

> <s_epik_cmdline>
J2VwaWtfcHl0aG9uJywgJy1waCcsICc3LjAnLCAnLXRuJywgJzgnLCAnLW1hJywgJzIwMCcsICctaW1hZScsICc8aW5maWxlLm1hZT4nLCAnLW9tYWUnLCAnPG91dGZpbGUubWFlPic=

> <r_lp_tautomer_probability>
1

> <r_epik_Ionization_Penalty>
0.626267

> <r_epik_Ionization_Penalty_Charging>
0.626267

> <r_epik_Ionization_Penalty_Neutral>
5.43384e-07

> <r_epik_State_Penalty>
0.642726

> <r_epik_Charging_Adjusted_Penalty>
1.26899

> <i_epik_Tot_Q>
1

> <i_epik_Tot_abs_Q>
1

> <s_lp_Force_Field>
OPLS_2005

> <r_lp_Energy>
44.9038

> <b_lp_Chiralities_Consistent>
1

> <s_lp_Variant>
BACE_90.smi:1-2

$$$$
