BACE_22.smi:1
                    3D
 Structure written by MMmdl.
 79 80  0  0  1  0            999 V2000
   -2.6895    2.8624    0.1116 C   0  0  0  0  0  0
   -2.1896    1.4150   -0.0114 C   0  0  2  0  0  0
   -0.7105    1.3679    0.0578 N   0  3  0  0  0  0
   -0.1247    0.0098    0.0260 C   0  0  0  0  0  0
    1.4038    0.0355    0.2462 C   0  0  1  0  0  0
    1.5919    0.4843    1.5738 O   0  0  0  0  0  0
    2.0995   -1.3469    0.0738 C   0  0  2  0  0  0
    3.6460   -1.2805   -0.0183 C   0  0  0  0  0  0
    4.4228   -0.9160    1.2667 C   0  0  2  0  0  0
    5.9204   -0.7358    0.9617 C   0  0  0  0  0  0
    4.1896   -1.8713    2.4645 C   0  0  0  0  0  0
    4.6140   -3.3457    2.2794 C   0  0  0  0  0  0
    3.4913   -4.2819    1.7936 C   0  0  0  0  0  0
    3.8874   -5.7716    1.7909 C   0  0  0  0  0  0
    4.9763   -6.1705    0.7713 C   0  0  0  0  0  0
    4.6078   -5.9477   -0.7073 C   0  0  0  0  0  0
    3.4725   -6.8620   -1.2136 C   0  0  0  0  0  0
    3.0412   -6.5997   -2.6728 C   0  0  0  0  0  0
    2.4100   -5.2090   -2.8481 C   0  0  0  0  0  0
    3.1605   -4.2934   -3.1915 O   0  0  0  0  0  0
    1.0847   -5.0114   -2.6044 N   0  0  0  0  0  0
    0.1687   -6.1058   -2.2390 C   0  0  0  0  0  0
    0.5493   -3.6268   -2.6190 C   0  0  1  0  0  0
   -0.9522   -3.5617   -2.9875 C   0  0  0  0  0  0
    0.7543   -3.0128   -1.2233 C   0  0  0  0  0  0
    0.1367   -3.4426   -0.2482 O   0  0  0  0  0  0
    1.6432   -2.0097   -1.1485 N   0  0  0  0  0  0
   -2.7141    0.7275   -1.2677 C   0  0  0  0  0  0
   -3.4435   -0.4768   -1.1596 C   0  0  0  0  0  0
   -3.9025   -1.1364   -2.3160 C   0  0  0  0  0  0
   -3.6321   -0.5983   -3.5884 C   0  0  0  0  0  0
   -2.9029    0.6004   -3.7035 C   0  0  0  0  0  0
   -2.5230    1.3228   -5.4220 Br  0  0  0  0  0  0
   -2.4471    1.2628   -2.5473 C   0  0  0  0  0  0
   -2.5634    0.8694    0.8565 H   0  0  0  0  0  0
    1.8541    0.7543   -0.4396 H   0  0  0  0  0  0
    1.8263   -1.9758    0.9217 H   0  0  0  0  0  0
    4.0863    0.0680    1.5881 H   0  0  0  0  0  0
    1.0705   -3.0233   -3.3653 H   0  0  0  0  0  0
   -3.7793    2.8999    0.1065 H   0  0  0  0  0  0
   -2.3320    3.4886   -0.7062 H   0  0  0  0  0  0
   -2.3513    3.3151    1.0441 H   0  0  0  0  0  0
   -0.3321    1.8985   -0.7135 H   0  0  0  0  0  0
   -0.6060   -0.6238    0.7731 H   0  0  0  0  0  0
   -0.3566   -0.4137   -0.9498 H   0  0  0  0  0  0
    2.5192    0.4972    1.7585 H   0  0  0  0  0  0
    4.0268   -2.2380   -0.3765 H   0  0  0  0  0  0
    3.9099   -0.5676   -0.8007 H   0  0  0  0  0  0
    6.3652   -1.6408    0.5485 H   0  0  0  0  0  0
    6.4783   -0.4693    1.8599 H   0  0  0  0  0  0
    6.0762    0.0615    0.2343 H   0  0  0  0  0  0
    4.7549   -1.4714    3.3075 H   0  0  0  0  0  0
    3.1504   -1.8242    2.7903 H   0  0  0  0  0  0
    5.4801   -3.4178    1.6242 H   0  0  0  0  0  0
    4.9522   -3.7155    3.2482 H   0  0  0  0  0  0
    2.6324   -4.1641    2.4550 H   0  0  0  0  0  0
    3.1386   -3.9914    0.8066 H   0  0  0  0  0  0
    4.2293   -6.0442    2.7899 H   0  0  0  0  0  0
    2.9947   -6.3732    1.6230 H   0  0  0  0  0  0
    5.8928   -5.6234    0.9919 H   0  0  0  0  0  0
    5.2257   -7.2221    0.9164 H   0  0  0  0  0  0
    4.3617   -4.8981   -0.8592 H   0  0  0  0  0  0
    5.4932   -6.1288   -1.3175 H   0  0  0  0  0  0
    3.7894   -7.9013   -1.1231 H   0  0  0  0  0  0
    2.6043   -6.7608   -0.5639 H   0  0  0  0  0  0
    3.9174   -6.6650   -3.3194 H   0  0  0  0  0  0
    2.3711   -7.3805   -3.0313 H   0  0  0  0  0  0
    0.6511   -6.9493   -1.7500 H   0  0  0  0  0  0
   -0.3380   -6.4800   -3.1288 H   0  0  0  0  0  0
   -0.5897   -5.7794   -1.5293 H   0  0  0  0  0  0
   -1.2596   -2.5259   -3.1358 H   0  0  0  0  0  0
   -1.6126   -3.9766   -2.2260 H   0  0  0  0  0  0
   -1.1470   -4.0870   -3.9229 H   0  0  0  0  0  0
    2.0989   -1.7314   -2.0061 H   0  0  0  0  0  0
   -3.6501   -0.9050   -0.1894 H   0  0  0  0  0  0
   -4.4579   -2.0586   -2.2271 H   0  0  0  0  0  0
   -3.9808   -1.1076   -4.4749 H   0  0  0  0  0  0
   -1.8803    2.1766   -2.6485 H   0  0  0  0  0  0
   -0.4231    1.8066    0.9213 H   0  0  0  0  0  0
  1  2  1  0  0  0
  1 40  1  0  0  0
  1 41  1  0  0  0
  1 42  1  0  0  0
  2 35  1  0  0  0
  2  3  1  0  0  0
  2 28  1  0  0  0
  3  4  1  0  0  0
  3 43  1  0  0  0
  3 79  1  0  0  0
  4  5  1  0  0  0
  4 44  1  0  0  0
  4 45  1  0  0  0
  5 36  1  0  0  0
  5  6  1  0  0  0
  5  7  1  0  0  0
  6 46  1  0  0  0
  7 37  1  0  0  0
  7 27  1  0  0  0
  7  8  1  0  0  0
  8  9  1  0  0  0
  8 47  1  0  0  0
  8 48  1  0  0  0
  9 38  1  0  0  0
  9 10  1  0  0  0
  9 11  1  0  0  0
 10 49  1  0  0  0
 10 50  1  0  0  0
 10 51  1  0  0  0
 11 12  1  0  0  0
 11 52  1  0  0  0
 11 53  1  0  0  0
 12 13  1  0  0  0
 12 54  1  0  0  0
 12 55  1  0  0  0
 13 14  1  0  0  0
 13 56  1  0  0  0
 13 57  1  0  0  0
 14 15  1  0  0  0
 14 58  1  0  0  0
 14 59  1  0  0  0
 15 16  1  0  0  0
 15 60  1  0  0  0
 15 61  1  0  0  0
 16 17  1  0  0  0
 16 62  1  0  0  0
 16 63  1  0  0  0
 17 18  1  0  0  0
 17 64  1  0  0  0
 17 65  1  0  0  0
 18 19  1  0  0  0
 18 66  1  0  0  0
 18 67  1  0  0  0
 19 20  2  0  0  0
 19 21  1  0  0  0
 21 22  1  0  0  0
 21 23  1  0  0  0
 22 68  1  0  0  0
 22 69  1  0  0  0
 22 70  1  0  0  0
 23 39  1  0  0  0
 23 24  1  0  0  0
 23 25  1  0  0  0
 24 71  1  0  0  0
 24 72  1  0  0  0
 24 73  1  0  0  0
 25 26  2  0  0  0
 25 27  1  0  0  0
 27 74  1  0  0  0
 28 34  1  0  0  0
 28 29  2  0  0  0
 29 30  1  0  0  0
 29 75  1  0  0  0
 30 31  2  0  0  0
 30 76  1  0  0  0
 31 32  1  0  0  0
 31 77  1  0  0  0
 32 33  1  0  0  0
 32 34  2  0  0  0
 34 78  1  0  0  0
M  CHG  1   3   1
M  END
> <s_m_source_file>
BACE_22.smi

> <i_m_source_file_index>
1

> <i_lp_mmshare_version>
42013

> <i_f3d_flags>
0

> <s_epik_input>
QnJjKFtjSF0xKVtjSF1bY0hdW2NIXWMxW0NASF0oW0NIM10pW05IXVtDSDJdW0NAQEhdKFtPSF0pW0NAQEhdMltDSDJdW0NASF0oW0NIM10pW0NIMl1bQ0gyXVtDSDJdW0NIMl1bQ0gyXVtDSDJdW0NIMl1bQ0gyXUMoPU8pTihbQ0gzXSlbQ0BASF0oW0NIM10pQyg9TylbTkhdMg==

> <s_epik_cmdline>
J2VwaWtfcHl0aG9uJywgJy1waCcsICc3LjAnLCAnLXRuJywgJzgnLCAnLW1hJywgJzIwMCcsICctaW1hZScsICc8aW5maWxlLm1hZT4nLCAnLW9tYWUnLCAnPG91dGZpbGUubWFlPic=

> <r_epik_Ionization_Penalty>
0.0223643

> <r_epik_Ionization_Penalty_Charging>
0.0223641

> <r_epik_Ionization_Penalty_Neutral>
2.70132e-07

> <r_epik_State_Penalty>
0.0180398

> <r_epik_Charging_Adjusted_Penalty>
0.0404039

> <i_epik_Tot_Q>
1

> <i_epik_Tot_abs_Q>
1

> <s_lp_Force_Field>
OPLS_2005

> <r_lp_Energy>
33.6396

> <b_lp_Chiralities_Consistent>
1

> <s_lp_Variant>
BACE_22.smi:1-1

$$$$
BACE_22.smi:1
                    3D
 Structure written by MMmdl.
 78 79  0  0  1  0            999 V2000
   -2.6792    2.8483   -0.1355 C   0  0  0  0  0  0
   -2.1919    1.3932   -0.1028 C   0  0  2  0  0  0
   -0.7350    1.3609    0.0337 N   0  0  0  0  0  0
   -0.1892    0.0459    0.3649 C   0  0  0  0  0  0
    1.3546    0.0830    0.4377 C   0  0  1  0  0  0
    1.6588    0.5488    1.7369 O   0  0  0  0  0  0
    2.0426   -1.2948    0.2181 C   0  0  2  0  0  0
    3.5850   -1.2271    0.0590 C   0  0  0  0  0  0
    4.4265   -0.9283    1.3208 C   0  0  2  0  0  0
    5.9107   -0.7539    0.9526 C   0  0  0  0  0  0
    4.2361   -1.9287    2.4891 C   0  0  0  0  0  0
    4.6408   -3.3981    2.2330 C   0  0  0  0  0  0
    3.5009   -4.3011    1.7245 C   0  0  0  0  0  0
    3.8695   -5.7972    1.6760 C   0  0  0  0  0  0
    4.9665   -6.1816    0.6595 C   0  0  0  0  0  0
    4.6215   -5.9064   -0.8160 C   0  0  0  0  0  0
    3.5049   -6.8120   -1.3770 C   0  0  0  0  0  0
    3.0604   -6.4618   -2.8137 C   0  0  0  0  0  0
    2.3847   -5.0831   -2.8872 C   0  0  0  0  0  0
    3.0977   -4.1280   -3.2011 O   0  0  0  0  0  0
    1.0644   -4.9381   -2.5855 N   0  0  0  0  0  0
    0.1822   -6.0760   -2.2712 C   0  0  0  0  0  0
    0.4984   -3.5688   -2.4832 C   0  0  1  0  0  0
   -1.0252   -3.5191   -2.7425 C   0  0  0  0  0  0
    0.7768   -3.0279   -1.0698 C   0  0  0  0  0  0
    0.3307   -3.6061   -0.0778 O   0  0  0  0  0  0
    1.5356   -1.9232   -1.0025 N   0  0  0  0  0  0
   -2.6759    0.6371   -1.3342 C   0  0  0  0  0  0
   -3.7209   -0.3034   -1.2129 C   0  0  0  0  0  0
   -4.1731   -1.0128   -2.3424 C   0  0  0  0  0  0
   -3.5828   -0.7857   -3.6003 C   0  0  0  0  0  0
   -2.5387    0.1505   -3.7279 C   0  0  0  0  0  0
   -1.7289    0.4483   -5.4237 Br  0  0  0  0  0  0
   -2.0891    0.8629   -2.5996 C   0  0  0  0  0  0
   -2.6351    0.9257    0.7777 H   0  0  0  0  0  0
    1.7410    0.7905   -0.2976 H   0  0  0  0  0  0
    1.8019   -1.9354    1.0667 H   0  0  0  0  0  0
    4.1206    0.0453    1.6988 H   0  0  0  0  0  0
    0.9566   -2.9119   -3.2259 H   0  0  0  0  0  0
   -3.7672    2.8948   -0.1911 H   0  0  0  0  0  0
   -2.2795    3.3865   -0.9957 H   0  0  0  0  0  0
   -2.3742    3.3849    0.7633 H   0  0  0  0  0  0
   -0.4273    2.0548    0.7077 H   0  0  0  0  0  0
   -0.6074   -0.3231    1.3028 H   0  0  0  0  0  0
   -0.5189   -0.6543   -0.3993 H   0  0  0  0  0  0
    2.5982    0.6089    1.8200 H   0  0  0  0  0  0
    3.9453   -2.1667   -0.3620 H   0  0  0  0  0  0
    3.8156   -0.4787   -0.7005 H   0  0  0  0  0  0
    6.3231   -1.6457    0.4811 H   0  0  0  0  0  0
    6.5138   -0.5315    1.8332 H   0  0  0  0  0  0
    6.0431    0.0715    0.2525 H   0  0  0  0  0  0
    4.8399   -1.5646    3.3215 H   0  0  0  0  0  0
    3.2125   -1.8871    2.8612 H   0  0  0  0  0  0
    5.4961   -3.4505    1.5618 H   0  0  0  0  0  0
    4.9886   -3.8125    3.1799 H   0  0  0  0  0  0
    2.6441   -4.1876    2.3895 H   0  0  0  0  0  0
    3.1530   -3.9755    0.7472 H   0  0  0  0  0  0
    4.1914   -6.1092    2.6701 H   0  0  0  0  0  0
    2.9676   -6.3749    1.4753 H   0  0  0  0  0  0
    5.8872   -5.6551    0.9102 H   0  0  0  0  0  0
    5.1994   -7.2407    0.7750 H   0  0  0  0  0  0
    4.3692   -4.8537   -0.9330 H   0  0  0  0  0  0
    5.5187   -6.0557   -1.4173 H   0  0  0  0  0  0
    3.8462   -7.8473   -1.3560 H   0  0  0  0  0  0
    2.6376   -6.7748   -0.7194 H   0  0  0  0  0  0
    3.9359   -6.4535   -3.4643 H   0  0  0  0  0  0
    2.4138   -7.2348   -3.2278 H   0  0  0  0  0  0
    0.6958   -6.9745   -1.9374 H   0  0  0  0  0  0
   -0.4101   -6.3411   -3.1471 H   0  0  0  0  0  0
   -0.5018   -5.8362   -1.4583 H   0  0  0  0  0  0
   -1.3644   -2.4840   -2.7794 H   0  0  0  0  0  0
   -1.6190   -4.0141   -1.9739 H   0  0  0  0  0  0
   -1.2746   -3.9687   -3.7040 H   0  0  0  0  0  0
    1.8460   -1.5202   -1.8748 H   0  0  0  0  0  0
   -4.1782   -0.4859   -0.2514 H   0  0  0  0  0  0
   -4.9715   -1.7331   -2.2430 H   0  0  0  0  0  0
   -3.9276   -1.3329   -4.4653 H   0  0  0  0  0  0
   -1.2879    1.5796   -2.7062 H   0  0  0  0  0  0
  1  2  1  0  0  0
  1 40  1  0  0  0
  1 41  1  0  0  0
  1 42  1  0  0  0
  2 35  1  0  0  0
  2  3  1  0  0  0
  2 28  1  0  0  0
  3  4  1  0  0  0
  3 43  1  0  0  0
  4  5  1  0  0  0
  4 44  1  0  0  0
  4 45  1  0  0  0
  5 36  1  0  0  0
  5  6  1  0  0  0
  5  7  1  0  0  0
  6 46  1  0  0  0
  7 37  1  0  0  0
  7 27  1  0  0  0
  7  8  1  0  0  0
  8  9  1  0  0  0
  8 47  1  0  0  0
  8 48  1  0  0  0
  9 38  1  0  0  0
  9 10  1  0  0  0
  9 11  1  0  0  0
 10 49  1  0  0  0
 10 50  1  0  0  0
 10 51  1  0  0  0
 11 12  1  0  0  0
 11 52  1  0  0  0
 11 53  1  0  0  0
 12 13  1  0  0  0
 12 54  1  0  0  0
 12 55  1  0  0  0
 13 14  1  0  0  0
 13 56  1  0  0  0
 13 57  1  0  0  0
 14 15  1  0  0  0
 14 58  1  0  0  0
 14 59  1  0  0  0
 15 16  1  0  0  0
 15 60  1  0  0  0
 15 61  1  0  0  0
 16 17  1  0  0  0
 16 62  1  0  0  0
 16 63  1  0  0  0
 17 18  1  0  0  0
 17 64  1  0  0  0
 17 65  1  0  0  0
 18 19  1  0  0  0
 18 66  1  0  0  0
 18 67  1  0  0  0
 19 20  2  0  0  0
 19 21  1  0  0  0
 21 22  1  0  0  0
 21 23  1  0  0  0
 22 68  1  0  0  0
 22 69  1  0  0  0
 22 70  1  0  0  0
 23 39  1  0  0  0
 23 24  1  0  0  0
 23 25  1  0  0  0
 24 71  1  0  0  0
 24 72  1  0  0  0
 24 73  1  0  0  0
 25 26  2  0  0  0
 25 27  1  0  0  0
 27 74  1  0  0  0
 28 34  1  0  0  0
 28 29  2  0  0  0
 29 30  1  0  0  0
 29 75  1  0  0  0
 30 31  2  0  0  0
 30 76  1  0  0  0
 31 32  1  0  0  0
 31 77  1  0  0  0
 32 33  1  0  0  0
 32 34  2  0  0  0
 34 78  1  0  0  0
M  END
> <s_m_source_file>
BACE_22.smi

> <i_m_source_file_index>
1

> <i_lp_mmshare_version>
42013

> <i_f3d_flags>
0

> <s_epik_input>
QnJjKFtjSF0xKVtjSF1bY0hdW2NIXWMxW0NASF0oW0NIM10pW05IXVtDSDJdW0NAQEhdKFtPSF0pW0NAQEhdMltDSDJdW0NASF0oW0NIM10pW0NIMl1bQ0gyXVtDSDJdW0NIMl1bQ0gyXVtDSDJdW0NIMl1bQ0gyXUMoPU8pTihbQ0gzXSlbQ0BASF0oW0NIM10pQyg9TylbTkhdMg==

> <s_epik_cmdline>
J2VwaWtfcHl0aG9uJywgJy1waCcsICc3LjAnLCAnLXRuJywgJzgnLCAnLW1hJywgJzIwMCcsICctaW1hZScsICc8aW5maWxlLm1hZT4nLCAnLW9tYWUnLCAnPG91dGZpbGUubWFlPic=

> <r_epik_Ionization_Penalty>
1.95265

> <r_epik_Ionization_Penalty_Charging>
0

> <r_epik_Ionization_Penalty_Neutral>
1.95265

> <r_epik_State_Penalty>
2.07781

> <r_epik_Charging_Adjusted_Penalty>
2.07781

> <i_epik_Tot_Q>
0

> <i_epik_Tot_abs_Q>
0

> <s_lp_Force_Field>
OPLS_2005

> <r_lp_Energy>
40.6292

> <b_lp_Chiralities_Consistent>
1

> <s_lp_Variant>
BACE_22.smi:1-2

$$$$
