BACE_93.smi:1
                    3D
 Structure written by MMmdl.
 94 97  0  0  1  0            999 V2000
    1.3093    2.6781    3.7651 C   0  0  0  0  0  0
    0.6071    3.3658    2.5784 C   0  0  2  0  0  0
   -0.1150    4.6743    2.9905 C   0  0  0  0  0  0
    0.7903    5.9209    2.9371 C   0  0  0  0  0  0
    1.9972    5.8085    3.1454 O   0  0  0  0  0  0
    0.2601    7.1280    2.6730 N   0  0  0  0  0  0
   -1.1326    7.4612    2.3857 C   0  0  0  0  0  0
   -1.4938    7.2549    0.9023 C   0  0  0  0  0  0
   -0.6322    8.0781   -0.0733 C   0  0  0  0  0  0
   -1.0236    7.9339   -1.5569 C   0  0  0  0  0  0
   -0.6482    6.6617   -2.0830 O   0  0  0  0  0  0
   -1.4889    5.5799   -1.9273 C   0  0  0  0  0  0
   -0.8891    4.3039   -1.9347 C   0  0  0  0  0  0
   -1.6609    3.1379   -1.7493 C   0  0  0  0  0  0
   -0.9936    1.7729   -1.7035 C   0  0  0  0  0  0
   -0.8398    1.2168   -0.2705 C   0  0  2  0  0  0
   -0.1577    2.2077    0.5655 N   0  0  0  0  0  0
   -0.3531    2.3936    1.8799 C   0  0  0  0  0  0
   -1.2246    1.8096    2.5237 O   0  0  0  0  0  0
   -0.0896   -0.1449   -0.2652 C   0  0  2  0  0  0
   -0.5632   -0.9215    0.8183 O   0  0  0  0  0  0
    1.4468   -0.0361   -0.1810 C   0  0  0  0  0  0
    2.0964   -1.3646   -0.2855 N   0  3  0  0  0  0
    3.5695   -1.4208   -0.0690 C   0  0  0  0  0  0
    4.3094   -0.6837   -1.2280 C   0  0  0  0  0  0
    4.1184   -1.3462   -2.6033 C   0  0  0  0  0  0
    4.5756   -2.8082   -2.5787 C   0  0  0  0  0  0
    3.8454   -3.5830   -1.4767 C   0  0  0  0  0  0
    4.0172   -2.9106   -0.1014 C   0  0  0  0  0  0
    3.8824   -0.8194    1.3198 C   0  0  0  0  0  0
    4.5787    0.4060    1.4750 C   0  0  0  0  0  0
    4.8038    0.9842    2.7473 C   0  0  0  0  0  0
    4.3264    0.2992    3.8900 C   0  0  0  0  0  0
    3.6329   -0.9157    3.7565 C   0  0  0  0  0  0
    3.4075   -1.4667    2.4838 C   0  0  0  0  0  0
    5.5514    2.3287    2.8468 C   0  0  0  0  0  0
    5.6626    2.8503    4.2973 C   0  0  0  0  0  0
    4.8104    3.4056    2.0250 C   0  0  0  0  0  0
    6.9821    2.1635    2.2946 C   0  0  0  0  0  0
   -3.0553    3.2451   -1.5812 C   0  0  0  0  0  0
   -3.6695    4.5103   -1.5942 C   0  0  0  0  0  0
   -2.8940    5.6730   -1.7656 C   0  0  0  0  0  0
    1.3804    3.6083    1.8467 H   0  0  0  0  0  0
   -1.8540    1.0681    0.1068 H   0  0  0  0  0  0
   -0.3584   -0.6949   -1.1682 H   0  0  0  0  0  0
    1.7887    1.7496    3.4537 H   0  0  0  0  0  0
    0.6053    2.4361    4.5621 H   0  0  0  0  0  0
    2.0836    3.3140    4.1938 H   0  0  0  0  0  0
   -0.9806    4.8224    2.3478 H   0  0  0  0  0  0
   -0.5123    4.5835    4.0017 H   0  0  0  0  0  0
    0.9039    7.9059    2.6612 H   0  0  0  0  0  0
   -1.8030    6.8875    3.0269 H   0  0  0  0  0  0
   -1.2855    8.5069    2.6533 H   0  0  0  0  0  0
   -1.4075    6.1980    0.6602 H   0  0  0  0  0  0
   -2.5434    7.5121    0.7579 H   0  0  0  0  0  0
   -0.7096    9.1303    0.2023 H   0  0  0  0  0  0
    0.4195    7.8130    0.0394 H   0  0  0  0  0  0
   -2.0635    8.2024   -1.7292 H   0  0  0  0  0  0
   -0.4528    8.6690   -2.1245 H   0  0  0  0  0  0
    0.1814    4.2253   -2.0564 H   0  0  0  0  0  0
   -1.5802    1.0815   -2.3098 H   0  0  0  0  0  0
   -0.0169    1.8409   -2.1846 H   0  0  0  0  0  0
    0.5655    2.7540    0.1201 H   0  0  0  0  0  0
   -1.5078   -0.9439    0.7848 H   0  0  0  0  0  0
    1.8054    0.6059   -0.9845 H   0  0  0  0  0  0
    1.7258    0.4392    0.7585 H   0  0  0  0  0  0
    1.6679   -1.9557    0.4127 H   0  0  0  0  0  0
    4.0045    0.3600   -1.2993 H   0  0  0  0  0  0
    5.3798   -0.6677   -1.0157 H   0  0  0  0  0  0
    3.0719   -1.2894   -2.9051 H   0  0  0  0  0  0
    4.6838   -0.7981   -3.3574 H   0  0  0  0  0  0
    4.3945   -3.2744   -3.5476 H   0  0  0  0  0  0
    5.6521   -2.8539   -2.4085 H   0  0  0  0  0  0
    2.7859   -3.6602   -1.7236 H   0  0  0  0  0  0
    4.2227   -4.6053   -1.4356 H   0  0  0  0  0  0
    5.0684   -2.9736    0.1846 H   0  0  0  0  0  0
    3.4720   -3.5027    0.6329 H   0  0  0  0  0  0
    4.9449    0.9370    0.6123 H   0  0  0  0  0  0
    4.4682    0.6869    4.8865 H   0  0  0  0  0  0
    3.2623   -1.4221    4.6357 H   0  0  0  0  0  0
    2.8462   -2.3861    2.4154 H   0  0  0  0  0  0
    6.1852    3.8068    4.3337 H   0  0  0  0  0  0
    6.2198    2.1616    4.9335 H   0  0  0  0  0  0
    4.6805    3.0077    4.7456 H   0  0  0  0  0  0
    3.7893    3.5393    2.3800 H   0  0  0  0  0  0
    4.7591    3.1588    0.9651 H   0  0  0  0  0  0
    5.3083    4.3729    2.1000 H   0  0  0  0  0  0
    7.5468    3.0934    2.3719 H   0  0  0  0  0  0
    6.9856    1.8742    1.2435 H   0  0  0  0  0  0
    7.5317    1.4002    2.8466 H   0  0  0  0  0  0
   -3.6562    2.3591   -1.4369 H   0  0  0  0  0  0
   -4.7391    4.5906   -1.4679 H   0  0  0  0  0  0
   -3.4081    6.6203   -1.7714 H   0  0  0  0  0  0
    1.8921   -1.7519   -1.1952 H   0  0  0  0  0  0
  1  2  1  0  0  0
  1 46  1  0  0  0
  1 47  1  0  0  0
  1 48  1  0  0  0
  2 43  1  0  0  0
  2 18  1  0  0  0
  2  3  1  0  0  0
  3  4  1  0  0  0
  3 49  1  0  0  0
  3 50  1  0  0  0
  4  5  2  0  0  0
  4  6  1  0  0  0
  6  7  1  0  0  0
  6 51  1  0  0  0
  7  8  1  0  0  0
  7 52  1  0  0  0
  7 53  1  0  0  0
  8  9  1  0  0  0
  8 54  1  0  0  0
  8 55  1  0  0  0
  9 10  1  0  0  0
  9 56  1  0  0  0
  9 57  1  0  0  0
 10 11  1  0  0  0
 10 58  1  0  0  0
 10 59  1  0  0  0
 11 12  1  0  0  0
 12 42  1  0  0  0
 12 13  2  0  0  0
 13 14  1  0  0  0
 13 60  1  0  0  0
 14 15  1  0  0  0
 14 40  2  0  0  0
 15 16  1  0  0  0
 15 61  1  0  0  0
 15 62  1  0  0  0
 16 44  1  0  0  0
 16 17  1  0  0  0
 16 20  1  0  0  0
 17 18  1  0  0  0
 17 63  1  0  0  0
 18 19  2  0  0  0
 20 45  1  0  0  0
 20 21  1  0  0  0
 20 22  1  0  0  0
 21 64  1  0  0  0
 22 23  1  0  0  0
 22 65  1  0  0  0
 22 66  1  0  0  0
 23 24  1  0  0  0
 23 67  1  0  0  0
 23 94  1  0  0  0
 24 29  1  0  0  0
 24 25  1  0  0  0
 24 30  1  0  0  0
 25 26  1  0  0  0
 25 68  1  0  0  0
 25 69  1  0  0  0
 26 27  1  0  0  0
 26 70  1  0  0  0
 26 71  1  0  0  0
 27 28  1  0  0  0
 27 72  1  0  0  0
 27 73  1  0  0  0
 28 29  1  0  0  0
 28 74  1  0  0  0
 28 75  1  0  0  0
 29 76  1  0  0  0
 29 77  1  0  0  0
 30 35  1  0  0  0
 30 31  2  0  0  0
 31 32  1  0  0  0
 31 78  1  0  0  0
 32 33  2  0  0  0
 32 36  1  0  0  0
 33 34  1  0  0  0
 33 79  1  0  0  0
 34 35  2  0  0  0
 34 80  1  0  0  0
 35 81  1  0  0  0
 36 37  1  0  0  0
 36 38  1  0  0  0
 36 39  1  0  0  0
 37 82  1  0  0  0
 37 83  1  0  0  0
 37 84  1  0  0  0
 38 85  1  0  0  0
 38 86  1  0  0  0
 38 87  1  0  0  0
 39 88  1  0  0  0
 39 89  1  0  0  0
 39 90  1  0  0  0
 40 41  1  0  0  0
 40 91  1  0  0  0
 41 42  2  0  0  0
 41 92  1  0  0  0
 42 93  1  0  0  0
M  CHG  1  23   1
M  END
> <s_m_source_file>
BACE_93.smi

> <i_m_source_file_index>
1

> <i_lp_mmshare_version>
42013

> <i_f3d_flags>
0

> <s_epik_input>
TzFbQ0gyXVtDSDJdW0NIMl1bQ0gyXVtOSF1DKD1PKVtDSDJdW0NAQEhdKFtDSDNdKUMoPU8pW05IXVtDQEBIXShbQ0gyXWMoW2NIXWMxMilbY0hdW2NIXVtjSF0yKVtDQEhdKFtPSF0pW0NIMl1bTkhdQzMoW0NIMl1bQ0gyXVtDSDJdW0NIMl1bQ0gyXTMpYzRbY0hdYyhDKFtDSDNdKShbQ0gzXSlbQ0gzXSlbY0hdW2NIXVtjSF00

> <s_epik_cmdline>
J2VwaWtfcHl0aG9uJywgJy1waCcsICc3LjAnLCAnLXRuJywgJzgnLCAnLW1hJywgJzIwMCcsICctaW1hZScsICc8aW5maWxlLm1hZT4nLCAnLW9tYWUnLCAnPG91dGZpbGUubWFlPic=

> <r_lp_tautomer_probability>
1

> <r_epik_Ionization_Penalty>
0.0119588

> <r_epik_Ionization_Penalty_Charging>
0.0119584

> <r_epik_Ionization_Penalty_Neutral>
3.94666e-07

> <r_epik_State_Penalty>
0.00923145

> <r_epik_Charging_Adjusted_Penalty>
0.0211899

> <i_epik_Tot_Q>
1

> <i_epik_Tot_abs_Q>
1

> <s_lp_Force_Field>
OPLS_2005

> <r_lp_Energy>
42.4445

> <b_lp_Chiralities_Consistent>
1

> <s_lp_Variant>
BACE_93.smi:1-1

$$$$
BACE_93.smi:1
                    3D
 Structure written by MMmdl.
 93 96  0  0  1  0            999 V2000
    2.0961    3.3693   -2.6239 C   0  0  0  0  0  0
    0.7201    3.8155   -2.0941 C   0  0  2  0  0  0
    0.5420    5.3569   -2.1299 C   0  0  0  0  0  0
   -0.0226    5.8804   -3.4652 C   0  0  0  0  0  0
    0.2976    5.3310   -4.5174 O   0  0  0  0  0  0
   -0.8515    6.9392   -3.4831 N   0  0  0  0  0  0
   -1.3508    7.7205   -2.3548 C   0  0  0  0  0  0
   -2.5670    7.0640   -1.6750 C   0  0  0  0  0  0
   -3.7669    6.8405   -2.6138 C   0  0  0  0  0  0
   -5.0124    6.2367   -1.9357 C   0  0  0  0  0  0
   -4.8284    4.8591   -1.6120 O   0  0  0  0  0  0
   -4.2159    4.5053   -0.4278 C   0  0  0  0  0  0
   -3.6171    3.2294   -0.3806 C   0  0  0  0  0  0
   -2.9370    2.7890    0.7738 C   0  0  0  0  0  0
   -2.2589    1.4289    0.7967 C   0  0  0  0  0  0
   -0.7221    1.5079    0.6434 C   0  0  2  0  0  0
   -0.3907    2.2451   -0.5794 N   0  0  0  0  0  0
    0.4895    3.2549   -0.6844 C   0  0  0  0  0  0
    1.1125    3.7148    0.2729 O   0  0  0  0  0  0
   -0.0547    0.1075    0.6407 C   0  0  2  0  0  0
   -0.2842   -0.4929    1.9011 O   0  0  0  0  0  0
    1.4735    0.1484    0.4364 C   0  0  0  0  0  0
    2.0093   -1.1851    0.1477 N   0  0  0  0  0  0
    3.4680   -1.3009   -0.0470 C   0  0  0  0  0  0
    3.9218   -0.4863   -1.3000 C   0  0  0  0  0  0
    3.3684   -1.0329   -2.6263 C   0  0  0  0  0  0
    3.7635   -2.5002   -2.8220 C   0  0  0  0  0  0
    3.2903   -3.3467   -1.6357 C   0  0  0  0  0  0
    3.8109   -2.7974   -0.2936 C   0  0  0  0  0  0
    4.1783   -0.8405    1.2457 C   0  0  0  0  0  0
    5.0755    0.2567    1.2755 C   0  0  0  0  0  0
    5.6986    0.6828    2.4730 C   0  0  0  0  0  0
    5.4095   -0.0193    3.6675 C   0  0  0  0  0  0
    4.5182   -1.1060    3.6593 C   0  0  0  0  0  0
    3.9052   -1.5097    2.4610 C   0  0  0  0  0  0
    6.6562    1.8901    2.4385 C   0  0  0  0  0  0
    7.2544    2.2262    3.8234 C   0  0  0  0  0  0
    5.8970    3.1396    1.9438 C   0  0  0  0  0  0
    7.8313    1.5949    1.4826 C   0  0  0  0  0  0
   -2.8731    3.6243    1.9062 C   0  0  0  0  0  0
   -3.4844    4.8905    1.8806 C   0  0  0  0  0  0
   -4.1536    5.3311    0.7230 C   0  0  0  0  0  0
   -0.0393    3.3640   -2.7360 H   0  0  0  0  0  0
   -0.3389    2.0599    1.5038 H   0  0  0  0  0  0
   -0.5131   -0.5071   -0.1357 H   0  0  0  0  0  0
    2.1994    2.2838   -2.5905 H   0  0  0  0  0  0
    2.9095    3.7968   -2.0363 H   0  0  0  0  0  0
    2.2418    3.6751   -3.6596 H   0  0  0  0  0  0
   -0.1000    5.6645   -1.3072 H   0  0  0  0  0  0
    1.4982    5.8494   -1.9501 H   0  0  0  0  0  0
   -1.1783    7.2339   -4.3923 H   0  0  0  0  0  0
   -0.5538    7.8959   -1.6312 H   0  0  0  0  0  0
   -1.6332    8.7042   -2.7306 H   0  0  0  0  0  0
   -2.2609    6.1124   -1.2465 H   0  0  0  0  0  0
   -2.8788    7.6866   -0.8361 H   0  0  0  0  0  0
   -4.0446    7.7994   -3.0526 H   0  0  0  0  0  0
   -3.4765    6.2005   -3.4476 H   0  0  0  0  0  0
   -5.3619    6.8486   -1.1069 H   0  0  0  0  0  0
   -5.8284    6.2638   -2.6579 H   0  0  0  0  0  0
   -3.6602    2.5930   -1.2526 H   0  0  0  0  0  0
   -2.5218    0.9380    1.7343 H   0  0  0  0  0  0
   -2.6788    0.8076    0.0045 H   0  0  0  0  0  0
   -0.8516    1.9407   -1.4248 H   0  0  0  0  0  0
    0.1365    0.0331    2.5640 H   0  0  0  0  0  0
    1.7089    0.8034   -0.3979 H   0  0  0  0  0  0
    1.9492    0.5852    1.3152 H   0  0  0  0  0  0
    1.6895   -1.8581    0.8371 H   0  0  0  0  0  0
    3.6754    0.5714   -1.2113 H   0  0  0  0  0  0
    5.0093   -0.5296   -1.3763 H   0  0  0  0  0  0
    2.2824   -0.9334   -2.6465 H   0  0  0  0  0  0
    3.7463   -0.4361   -3.4567 H   0  0  0  0  0  0
    3.3355   -2.8826   -3.7491 H   0  0  0  0  0  0
    4.8467   -2.5803   -2.9228 H   0  0  0  0  0  0
    2.2002   -3.3762   -1.6217 H   0  0  0  0  0  0
    3.6208   -4.3777   -1.7640 H   0  0  0  0  0  0
    4.8951   -2.9189   -0.2745 H   0  0  0  0  0  0
    3.4269   -3.4260    0.5101 H   0  0  0  0  0  0
    5.2962    0.8050    0.3749 H   0  0  0  0  0  0
    5.8528    0.2569    4.6113 H   0  0  0  0  0  0
    4.2993   -1.6296    4.5782 H   0  0  0  0  0  0
    3.2125   -2.3374    2.4859 H   0  0  0  0  0  0
    7.9277    3.0823    3.7651 H   0  0  0  0  0  0
    7.8333    1.3939    4.2256 H   0  0  0  0  0  0
    6.4790    2.4816    4.5467 H   0  0  0  0  0  0
    5.0510    3.3686    2.5928 H   0  0  0  0  0  0
    5.5093    3.0145    0.9327 H   0  0  0  0  0  0
    6.5446    4.0168    1.9294 H   0  0  0  0  0  0
    8.5380    2.4251    1.4550 H   0  0  0  0  0  0
    7.4981    1.4273    0.4583 H   0  0  0  0  0  0
    8.3816    0.7076    1.7975 H   0  0  0  0  0  0
   -2.3529    3.2971    2.7946 H   0  0  0  0  0  0
   -3.4367    5.5286    2.7506 H   0  0  0  0  0  0
   -4.6069    6.3084    0.7508 H   0  0  0  0  0  0
  1  2  1  0  0  0
  1 46  1  0  0  0
  1 47  1  0  0  0
  1 48  1  0  0  0
  2 43  1  0  0  0
  2 18  1  0  0  0
  2  3  1  0  0  0
  3  4  1  0  0  0
  3 49  1  0  0  0
  3 50  1  0  0  0
  4  5  2  0  0  0
  4  6  1  0  0  0
  6  7  1  0  0  0
  6 51  1  0  0  0
  7  8  1  0  0  0
  7 52  1  0  0  0
  7 53  1  0  0  0
  8  9  1  0  0  0
  8 54  1  0  0  0
  8 55  1  0  0  0
  9 10  1  0  0  0
  9 56  1  0  0  0
  9 57  1  0  0  0
 10 11  1  0  0  0
 10 58  1  0  0  0
 10 59  1  0  0  0
 11 12  1  0  0  0
 12 42  1  0  0  0
 12 13  2  0  0  0
 13 14  1  0  0  0
 13 60  1  0  0  0
 14 15  1  0  0  0
 14 40  2  0  0  0
 15 16  1  0  0  0
 15 61  1  0  0  0
 15 62  1  0  0  0
 16 44  1  0  0  0
 16 17  1  0  0  0
 16 20  1  0  0  0
 17 18  1  0  0  0
 17 63  1  0  0  0
 18 19  2  0  0  0
 20 45  1  0  0  0
 20 21  1  0  0  0
 20 22  1  0  0  0
 21 64  1  0  0  0
 22 23  1  0  0  0
 22 65  1  0  0  0
 22 66  1  0  0  0
 23 24  1  0  0  0
 23 67  1  0  0  0
 24 29  1  0  0  0
 24 25  1  0  0  0
 24 30  1  0  0  0
 25 26  1  0  0  0
 25 68  1  0  0  0
 25 69  1  0  0  0
 26 27  1  0  0  0
 26 70  1  0  0  0
 26 71  1  0  0  0
 27 28  1  0  0  0
 27 72  1  0  0  0
 27 73  1  0  0  0
 28 29  1  0  0  0
 28 74  1  0  0  0
 28 75  1  0  0  0
 29 76  1  0  0  0
 29 77  1  0  0  0
 30 35  1  0  0  0
 30 31  2  0  0  0
 31 32  1  0  0  0
 31 78  1  0  0  0
 32 33  2  0  0  0
 32 36  1  0  0  0
 33 34  1  0  0  0
 33 79  1  0  0  0
 34 35  2  0  0  0
 34 80  1  0  0  0
 35 81  1  0  0  0
 36 37  1  0  0  0
 36 38  1  0  0  0
 36 39  1  0  0  0
 37 82  1  0  0  0
 37 83  1  0  0  0
 37 84  1  0  0  0
 38 85  1  0  0  0
 38 86  1  0  0  0
 38 87  1  0  0  0
 39 88  1  0  0  0
 39 89  1  0  0  0
 39 90  1  0  0  0
 40 41  1  0  0  0
 40 91  1  0  0  0
 41 42  2  0  0  0
 41 92  1  0  0  0
 42 93  1  0  0  0
M  END
> <s_m_source_file>
BACE_93.smi

> <i_m_source_file_index>
1

> <i_lp_mmshare_version>
42013

> <i_f3d_flags>
0

> <s_epik_input>
TzFbQ0gyXVtDSDJdW0NIMl1bQ0gyXVtOSF1DKD1PKVtDSDJdW0NAQEhdKFtDSDNdKUMoPU8pW05IXVtDQEBIXShbQ0gyXWMoW2NIXWMxMilbY0hdW2NIXVtjSF0yKVtDQEhdKFtPSF0pW0NIMl1bTkhdQzMoW0NIMl1bQ0gyXVtDSDJdW0NIMl1bQ0gyXTMpYzRbY0hdYyhDKFtDSDNdKShbQ0gzXSlbQ0gzXSlbY0hdW2NIXVtjSF00

> <s_epik_cmdline>
J2VwaWtfcHl0aG9uJywgJy1waCcsICc3LjAnLCAnLXRuJywgJzgnLCAnLW1hJywgJzIwMCcsICctaW1hZScsICc8aW5maWxlLm1hZT4nLCAnLW9tYWUnLCAnPG91dGZpbGUubWFlPic=

> <r_lp_tautomer_probability>
1

> <r_epik_Ionization_Penalty>
2.31838

> <r_epik_Ionization_Penalty_Charging>
0

> <r_epik_Ionization_Penalty_Neutral>
2.31838

> <r_epik_State_Penalty>
2.47036

> <r_epik_Charging_Adjusted_Penalty>
2.47036

> <i_epik_Tot_Q>
0

> <i_epik_Tot_abs_Q>
0

> <s_lp_Force_Field>
OPLS_2005

> <r_lp_Energy>
48.7286

> <b_lp_Chiralities_Consistent>
1

> <s_lp_Variant>
BACE_93.smi:1-2

$$$$
