BACE_97.smi:1
                    3D
 Structure written by MMmdl.
 80 83  0  0  1  0            999 V2000
    4.2194    5.0199   -3.7887 C   0  0  0  0  0  0
    2.7984    4.5156   -3.6496 C   0  0  0  0  0  0
    2.3156    4.0455   -2.4138 C   0  0  0  0  0  0
    0.9876    3.5750   -2.3393 C   0  0  0  0  0  0
    0.1910    3.6261   -3.5095 C   0  0  0  0  0  0
    0.7672    4.1208   -4.7053 C   0  0  0  0  0  0
    0.0772    4.1874   -5.9232 N   0  0  0  0  0  0
   -1.3592    4.4313   -5.9699 C   0  0  0  0  0  0
   -2.1021    3.3285   -6.7466 C   0  0  0  0  0  0
   -2.3535    2.0586   -5.9189 C   0  0  0  0  0  0
   -3.5692    2.1862   -4.9856 C   0  0  0  0  0  0
   -3.5181    1.1884   -3.8472 C   0  0  0  0  0  0
   -3.8281   -0.1701   -4.0610 C   0  0  0  0  0  0
   -3.7307   -1.0895   -2.9977 C   0  0  0  0  0  0
   -3.3121   -0.6561   -1.7241 C   0  0  0  0  0  0
   -2.9977    0.7018   -1.5079 C   0  0  0  0  0  0
   -2.5118    1.1795   -0.1487 C   0  0  0  0  0  0
   -0.9701    1.2610   -0.0141 C   0  0  2  0  0  0
   -0.4026    2.0256   -1.1304 N   0  0  0  0  0  0
    0.4549    3.0553   -1.0348 C   0  0  0  0  0  0
    0.8680    3.4996    0.0365 O   0  0  0  0  0  0
   -0.2910   -0.1316    0.0999 C   0  0  2  0  0  0
   -0.7228   -0.7425    1.3013 O   0  0  0  0  0  0
    1.2492   -0.0593    0.1487 C   0  0  0  0  0  0
    1.8714   -1.3974    0.2474 N   0  3  0  0  0  0
    3.3463   -1.4026    0.1349 C   0  0  0  0  0  0
    4.0078   -0.6344    1.2653 C   0  0  0  0  0  0
    4.3631    0.7212    1.0988 C   0  0  0  0  0  0
    4.9375    1.4227    2.1867 C   0  0  0  0  0  0
    5.1409    0.7002    3.3856 C   0  0  0  0  0  0
    4.7588   -0.6541    3.4489 C   0  0  0  0  0  0
    4.1965   -1.3142    2.4158 N   0  0  0  0  0  0
    5.3302    2.9085    2.1045 C   0  0  0  0  0  0
    4.5860    3.7038    3.1975 C   0  0  0  0  0  0
    4.9745    3.5471    0.7433 C   0  0  0  0  0  0
    6.8511    3.0500    2.3151 C   0  0  0  0  0  0
   -3.1235    1.6217   -2.5673 C   0  0  0  0  0  0
    2.0474    4.5447   -4.7697 N   0  0  0  0  0  0
   -0.7680    1.7921    0.9182 H   0  0  0  0  0  0
   -0.5912   -0.7607   -0.7388 H   0  0  0  0  0  0
    4.7435    4.9952   -2.8328 H   0  0  0  0  0  0
    4.2229    6.0481   -4.1517 H   0  0  0  0  0  0
    4.7727    4.4025   -4.4969 H   0  0  0  0  0  0
    2.9575    4.0375   -1.5455 H   0  0  0  0  0  0
   -0.8312    3.2805   -3.4908 H   0  0  0  0  0  0
    0.6057    4.5401   -6.7083 H   0  0  0  0  0  0
   -1.7886    4.5812   -4.9801 H   0  0  0  0  0  0
   -1.4938    5.3767   -6.4957 H   0  0  0  0  0  0
   -3.0579    3.7147   -7.1028 H   0  0  0  0  0  0
   -1.5351    3.0758   -7.6437 H   0  0  0  0  0  0
   -2.5037    1.2042   -6.5797 H   0  0  0  0  0  0
   -1.4559    1.8326   -5.3423 H   0  0  0  0  0  0
   -3.6180    3.1901   -4.5627 H   0  0  0  0  0  0
   -4.4934    2.0520   -5.5490 H   0  0  0  0  0  0
   -4.1319   -0.5105   -5.0403 H   0  0  0  0  0  0
   -3.9669   -2.1305   -3.1623 H   0  0  0  0  0  0
   -3.2253   -1.3694   -0.9176 H   0  0  0  0  0  0
   -2.9328    2.1712    0.0234 H   0  0  0  0  0  0
   -2.9380    0.5480    0.6313 H   0  0  0  0  0  0
   -0.6653    1.7265   -2.0587 H   0  0  0  0  0  0
   -1.6662   -0.8034    1.2866 H   0  0  0  0  0  0
    1.6339    0.4095   -0.7572 H   0  0  0  0  0  0
    1.5601    0.5620    0.9894 H   0  0  0  0  0  0
    1.6130   -1.8048    1.1350 H   0  0  0  0  0  0
    3.6943   -2.4362    0.1451 H   0  0  0  0  0  0
    3.6440   -0.9836   -0.8272 H   0  0  0  0  0  0
    4.1712    1.1974    0.1497 H   0  0  0  0  0  0
    5.5803    1.1700    4.2529 H   0  0  0  0  0  0
    4.9034   -1.2200    4.3572 H   0  0  0  0  0  0
    4.8272    4.7662    3.1484 H   0  0  0  0  0  0
    4.8438    3.3655    4.2011 H   0  0  0  0  0  0
    3.5053    3.6087    3.0860 H   0  0  0  0  0  0
    3.9028    3.4979    0.5483 H   0  0  0  0  0  0
    5.4936    3.0596   -0.0827 H   0  0  0  0  0  0
    5.2553    4.6006    0.7160 H   0  0  0  0  0  0
    7.1655    4.0925    2.2530 H   0  0  0  0  0  0
    7.4068    2.4944    1.5588 H   0  0  0  0  0  0
    7.1639    2.6781    3.2910 H   0  0  0  0  0  0
   -2.8852    2.6623   -2.4020 H   0  0  0  0  0  0
    1.4983   -1.9742   -0.4927 H   0  0  0  0  0  0
  1  2  1  0  0  0
  1 41  1  0  0  0
  1 42  1  0  0  0
  1 43  1  0  0  0
  2 38  1  0  0  0
  2  3  2  0  0  0
  3  4  1  0  0  0
  3 44  1  0  0  0
  4 20  1  0  0  0
  4  5  2  0  0  0
  5  6  1  0  0  0
  5 45  1  0  0  0
  6  7  1  0  0  0
  6 38  2  0  0  0
  7  8  1  0  0  0
  7 46  1  0  0  0
  8  9  1  0  0  0
  8 47  1  0  0  0
  8 48  1  0  0  0
  9 10  1  0  0  0
  9 49  1  0  0  0
  9 50  1  0  0  0
 10 11  1  0  0  0
 10 51  1  0  0  0
 10 52  1  0  0  0
 11 12  1  0  0  0
 11 53  1  0  0  0
 11 54  1  0  0  0
 12 37  1  0  0  0
 12 13  2  0  0  0
 13 14  1  0  0  0
 13 55  1  0  0  0
 14 15  2  0  0  0
 14 56  1  0  0  0
 15 16  1  0  0  0
 15 57  1  0  0  0
 16 17  1  0  0  0
 16 37  2  0  0  0
 17 18  1  0  0  0
 17 58  1  0  0  0
 17 59  1  0  0  0
 18 39  1  0  0  0
 18 19  1  0  0  0
 18 22  1  0  0  0
 19 20  1  0  0  0
 19 60  1  0  0  0
 20 21  2  0  0  0
 22 40  1  0  0  0
 22 23  1  0  0  0
 22 24  1  0  0  0
 23 61  1  0  0  0
 24 25  1  0  0  0
 24 62  1  0  0  0
 24 63  1  0  0  0
 25 26  1  0  0  0
 25 64  1  0  0  0
 25 80  1  0  0  0
 26 27  1  0  0  0
 26 65  1  0  0  0
 26 66  1  0  0  0
 27 32  1  0  0  0
 27 28  2  0  0  0
 28 29  1  0  0  0
 28 67  1  0  0  0
 29 30  2  0  0  0
 29 33  1  0  0  0
 30 31  1  0  0  0
 30 68  1  0  0  0
 31 32  2  0  0  0
 31 69  1  0  0  0
 33 34  1  0  0  0
 33 35  1  0  0  0
 33 36  1  0  0  0
 34 70  1  0  0  0
 34 71  1  0  0  0
 34 72  1  0  0  0
 35 73  1  0  0  0
 35 74  1  0  0  0
 35 75  1  0  0  0
 36 76  1  0  0  0
 36 77  1  0  0  0
 36 78  1  0  0  0
 37 79  1  0  0  0
M  CHG  1  25   1
M  END
> <s_m_source_file>
BACE_97.smi

> <i_m_source_file_index>
1

> <i_lp_mmshare_version>
42013

> <i_f3d_flags>
0

> <s_epik_input>
YzEyW2NIXWMoW0NIM10pbmMoW2NIXTEpW05IXVtDSDJdW0NIMl1bQ0gyXVtDSDJdYzNbY0hdW2NIXVtjSF1jKFtjSF0zKVtDSDJdW0NASF0oW05IXUMyPU8pW0NASF0oW09IXSlbQ0gyXVtOSF1bQ0gyXWM0W2NIXWMoW2NIXVtjSF1uNClDKFtDSDNdKShbQ0gzXSlbQ0gzXQ==

> <s_epik_cmdline>
J2VwaWtfcHl0aG9uJywgJy1waCcsICc3LjAnLCAnLXRuJywgJzgnLCAnLW1hJywgJzIwMCcsICctaW1hZScsICc8aW5maWxlLm1hZT4nLCAnLW9tYWUnLCAnPG91dGZpbGUubWFlPic=

> <r_lp_tautomer_probability>
1

> <r_epik_Ionization_Penalty>
0.0511383

> <r_epik_Ionization_Penalty_Charging>
0.0397144

> <r_epik_Ionization_Penalty_Neutral>
0.0114239

> <r_epik_State_Penalty>
0.0415084

> <r_epik_Charging_Adjusted_Penalty>
0.0812228

> <i_epik_Tot_Q>
1

> <i_epik_Tot_abs_Q>
1

> <s_lp_Force_Field>
OPLS_2005

> <r_lp_Energy>
21.8652

> <b_lp_Chiralities_Consistent>
1

> <s_lp_Variant>
BACE_97.smi:1-1

$$$$
BACE_97.smi:1
                    3D
 Structure written by MMmdl.
 79 82  0  0  1  0            999 V2000
    4.1977    5.1335   -4.3567 C   0  0  0  0  0  0
    2.8121    4.5767   -4.1060 C   0  0  0  0  0  0
    2.4106    4.1865   -2.8135 C   0  0  0  0  0  0
    1.1136    3.6596   -2.6373 C   0  0  0  0  0  0
    0.2638    3.5798   -3.7666 C   0  0  0  0  0  0
    0.7566    4.0080   -5.0230 C   0  0  0  0  0  0
   -0.0056    3.9518   -6.1970 N   0  0  0  0  0  0
   -1.4123    4.3318   -6.1566 C   0  0  0  0  0  0
   -2.3178    3.2557   -6.7833 C   0  0  0  0  0  0
   -2.5728    2.0537   -5.8602 C   0  0  0  0  0  0
   -3.6362    2.3372   -4.7855 C   0  0  0  0  0  0
   -3.5217    1.3901   -3.6083 C   0  0  0  0  0  0
   -3.9260    0.0442   -3.7226 C   0  0  0  0  0  0
   -3.7683   -0.8328   -2.6313 C   0  0  0  0  0  0
   -3.1986   -0.3700   -1.4284 C   0  0  0  0  0  0
   -2.7921    0.9753   -1.3102 C   0  0  0  0  0  0
   -2.1527    1.4822   -0.0263 C   0  0  0  0  0  0
   -0.6023    1.4598   -0.0251 C   0  0  2  0  0  0
   -0.0843    2.1142   -1.2322 N   0  0  0  0  0  0
    0.6581    3.2332   -1.2715 C   0  0  0  0  0  0
    1.0162    3.8525   -0.2697 O   0  0  0  0  0  0
   -0.0089    0.0332    0.1201 C   0  0  2  0  0  0
   -0.4192   -0.4912    1.3686 O   0  0  0  0  0  0
    1.5342    0.0022    0.1117 C   0  0  0  0  0  0
    2.0402   -1.3633   -0.0012 N   0  0  0  0  0  0
    3.4956   -1.4266   -0.0900 C   0  0  0  0  0  0
    4.0119   -2.8522   -0.0874 C   0  0  0  0  0  0
    4.7813   -3.3353    0.9913 C   0  0  0  0  0  0
    5.2564   -4.6677    0.9630 C   0  0  0  0  0  0
    4.9215   -5.4504   -0.1693 C   0  0  0  0  0  0
    4.1468   -4.8744   -1.1955 C   0  0  0  0  0  0
    3.6987   -3.6028   -1.1654 N   0  0  0  0  0  0
    6.1068   -5.2068    2.1274 C   0  0  0  0  0  0
    6.5056   -6.6881    1.9422 C   0  0  0  0  0  0
    5.3143   -5.0956    3.4465 C   0  0  0  0  0  0
    7.4035   -4.3796    2.2410 C   0  0  0  0  0  0
   -2.9746    1.8541   -2.3963 C   0  0  0  0  0  0
    2.0095    4.4829   -5.1869 N   0  0  0  0  0  0
   -0.2825    2.0207    0.8553 H   0  0  0  0  0  0
   -0.3913   -0.6049   -0.6777 H   0  0  0  0  0  0
    4.7776    5.1833   -3.4348 H   0  0  0  0  0  0
    4.1326    6.1395   -4.7722 H   0  0  0  0  0  0
    4.7367    4.5031   -5.0645 H   0  0  0  0  0  0
    3.0897    4.2775   -1.9777 H   0  0  0  0  0  0
   -0.7391    3.1930   -3.6719 H   0  0  0  0  0  0
    0.4839    4.2363   -7.0334 H   0  0  0  0  0  0
   -1.7417    4.5904   -5.1507 H   0  0  0  0  0  0
   -1.5039    5.2473   -6.7413 H   0  0  0  0  0  0
   -3.2747    3.7010   -7.0577 H   0  0  0  0  0  0
   -1.8733    2.9125   -7.7185 H   0  0  0  0  0  0
   -2.8864    1.1904   -6.4480 H   0  0  0  0  0  0
   -1.6311    1.7654   -5.3921 H   0  0  0  0  0  0
   -3.5396    3.3590   -4.4176 H   0  0  0  0  0  0
   -4.6353    2.2659   -5.2169 H   0  0  0  0  0  0
   -4.3475   -0.3197   -4.6482 H   0  0  0  0  0  0
   -4.0747   -1.8645   -2.7205 H   0  0  0  0  0  0
   -3.0680   -1.0511   -0.6001 H   0  0  0  0  0  0
   -2.4877    2.5090    0.1269 H   0  0  0  0  0  0
   -2.5515    0.9232    0.8207 H   0  0  0  0  0  0
   -0.3066    1.6724   -2.1127 H   0  0  0  0  0  0
   -0.0310   -1.3468    1.4728 H   0  0  0  0  0  0
    1.9100    0.5764   -0.7349 H   0  0  0  0  0  0
    1.9270    0.4858    1.0073 H   0  0  0  0  0  0
    1.6416   -1.7963   -0.8284 H   0  0  0  0  0  0
    3.8401   -0.9316   -0.9991 H   0  0  0  0  0  0
    3.9440   -0.8882    0.7459 H   0  0  0  0  0  0
    5.0042   -2.6863    1.8250 H   0  0  0  0  0  0
    5.2405   -6.4753   -0.2775 H   0  0  0  0  0  0
    3.8816   -5.4528   -2.0680 H   0  0  0  0  0  0
    7.1001   -7.0452    2.7839 H   0  0  0  0  0  0
    7.1070   -6.8351    1.0442 H   0  0  0  0  0  0
    5.6300   -7.3350    1.8733 H   0  0  0  0  0  0
    4.3806   -5.6568    3.3935 H   0  0  0  0  0  0
    5.0636   -4.0630    3.6896 H   0  0  0  0  0  0
    5.8862   -5.4905    4.2871 H   0  0  0  0  0  0
    8.0398   -4.7458    3.0474 H   0  0  0  0  0  0
    7.2008   -3.3282    2.4454 H   0  0  0  0  0  0
    7.9835   -4.4283    1.3186 H   0  0  0  0  0  0
   -2.6642    2.8850   -2.3056 H   0  0  0  0  0  0
  1  2  1  0  0  0
  1 41  1  0  0  0
  1 42  1  0  0  0
  1 43  1  0  0  0
  2 38  1  0  0  0
  2  3  2  0  0  0
  3  4  1  0  0  0
  3 44  1  0  0  0
  4 20  1  0  0  0
  4  5  2  0  0  0
  5  6  1  0  0  0
  5 45  1  0  0  0
  6  7  1  0  0  0
  6 38  2  0  0  0
  7  8  1  0  0  0
  7 46  1  0  0  0
  8  9  1  0  0  0
  8 47  1  0  0  0
  8 48  1  0  0  0
  9 10  1  0  0  0
  9 49  1  0  0  0
  9 50  1  0  0  0
 10 11  1  0  0  0
 10 51  1  0  0  0
 10 52  1  0  0  0
 11 12  1  0  0  0
 11 53  1  0  0  0
 11 54  1  0  0  0
 12 37  1  0  0  0
 12 13  2  0  0  0
 13 14  1  0  0  0
 13 55  1  0  0  0
 14 15  2  0  0  0
 14 56  1  0  0  0
 15 16  1  0  0  0
 15 57  1  0  0  0
 16 17  1  0  0  0
 16 37  2  0  0  0
 17 18  1  0  0  0
 17 58  1  0  0  0
 17 59  1  0  0  0
 18 39  1  0  0  0
 18 19  1  0  0  0
 18 22  1  0  0  0
 19 20  1  0  0  0
 19 60  1  0  0  0
 20 21  2  0  0  0
 22 40  1  0  0  0
 22 23  1  0  0  0
 22 24  1  0  0  0
 23 61  1  0  0  0
 24 25  1  0  0  0
 24 62  1  0  0  0
 24 63  1  0  0  0
 25 26  1  0  0  0
 25 64  1  0  0  0
 26 27  1  0  0  0
 26 65  1  0  0  0
 26 66  1  0  0  0
 27 32  1  0  0  0
 27 28  2  0  0  0
 28 29  1  0  0  0
 28 67  1  0  0  0
 29 30  2  0  0  0
 29 33  1  0  0  0
 30 31  1  0  0  0
 30 68  1  0  0  0
 31 32  2  0  0  0
 31 69  1  0  0  0
 33 34  1  0  0  0
 33 35  1  0  0  0
 33 36  1  0  0  0
 34 70  1  0  0  0
 34 71  1  0  0  0
 34 72  1  0  0  0
 35 73  1  0  0  0
 35 74  1  0  0  0
 35 75  1  0  0  0
 36 76  1  0  0  0
 36 77  1  0  0  0
 36 78  1  0  0  0
 37 79  1  0  0  0
M  END
> <s_m_source_file>
BACE_97.smi

> <i_m_source_file_index>
1

> <i_lp_mmshare_version>
42013

> <i_f3d_flags>
0

> <s_epik_input>
YzEyW2NIXWMoW0NIM10pbmMoW2NIXTEpW05IXVtDSDJdW0NIMl1bQ0gyXVtDSDJdYzNbY0hdW2NIXVtjSF1jKFtjSF0zKVtDSDJdW0NASF0oW05IXUMyPU8pW0NASF0oW09IXSlbQ0gyXVtOSF1bQ0gyXWM0W2NIXWMoW2NIXVtjSF1uNClDKFtDSDNdKShbQ0gzXSlbQ0gzXQ==

> <s_epik_cmdline>
J2VwaWtfcHl0aG9uJywgJy1waCcsICc3LjAnLCAnLXRuJywgJzgnLCAnLW1hJywgJzIwMCcsICctaW1hZScsICc8aW5maWxlLm1hZT4nLCAnLW9tYWUnLCAnPG91dGZpbGUubWFlPic=

> <r_lp_tautomer_probability>
1

> <r_epik_Ionization_Penalty>
1.64062

> <r_epik_Ionization_Penalty_Charging>
0

> <r_epik_Ionization_Penalty_Neutral>
1.64062

> <r_epik_State_Penalty>
1.72887

> <r_epik_Charging_Adjusted_Penalty>
1.72887

> <i_epik_Tot_Q>
0

> <i_epik_Tot_abs_Q>
0

> <s_lp_Force_Field>
OPLS_2005

> <r_lp_Energy>
35.3464

> <b_lp_Chiralities_Consistent>
1

> <s_lp_Variant>
BACE_97.smi:1-2

$$$$
BACE_97.smi:1
                    3D
 Structure written by MMmdl.
 81 84  0  0  1  0            999 V2000
    3.8666    5.3040   -4.7648 C   0  0  0  0  0  0
    2.5344    4.9873   -4.1193 C   0  0  0  0  0  0
    2.4328    4.2513   -2.9219 C   0  0  0  0  0  0
    1.1565    3.9884   -2.3765 C   0  0  0  0  0  0
    0.0124    4.4938   -3.0397 C   0  0  0  0  0  0
    0.1703    5.2419   -4.2311 C   0  0  0  0  0  0
   -0.8825    5.8157   -4.9561 N   0  0  0  0  0  0
   -2.1960    5.9921   -4.3539 C   0  0  0  0  0  0
   -3.1535    4.8412   -4.7007 C   0  0  0  0  0  0
   -4.5736    5.0588   -4.1431 C   0  0  0  0  0  0
   -4.9726    4.1031   -3.0037 C   0  0  0  0  0  0
   -4.0645    4.1493   -1.7847 C   0  0  0  0  0  0
   -3.8652    5.3562   -1.0819 C   0  0  0  0  0  0
   -3.0469    5.3811    0.0641 C   0  0  0  0  0  0
   -2.4342    4.1984    0.5208 C   0  0  0  0  0  0
   -2.6314    2.9867   -0.1734 C   0  0  0  0  0  0
   -1.9751    1.7034    0.3175 C   0  0  0  0  0  0
   -0.4292    1.6756    0.2066 C   0  0  2  0  0  0
   -0.0010    2.3872   -1.0020 N   0  0  0  0  0  0
    1.0330    3.2420   -1.0823 C   0  0  0  0  0  0
    1.8621    3.3968   -0.1857 O   0  0  0  0  0  0
    0.1260    0.2262    0.2599 C   0  0  2  0  0  0
   -0.1802   -0.3085    1.5342 O   0  0  0  0  0  0
    1.6510    0.1029    0.0592 C   0  0  0  0  0  0
    2.0837   -1.3087    0.0636 N   0  3  0  0  0  0
    3.5157   -1.5003   -0.2298 C   0  0  0  0  0  0
    3.8825   -2.9643   -0.1084 C   0  0  0  0  0  0
    3.7288   -3.8382   -1.2045 C   0  0  0  0  0  0
    4.0646   -5.2045   -1.0525 C   0  0  0  0  0  0
    4.5468   -5.6154    0.2146 C   0  0  0  0  0  0
    4.6627   -4.6633    1.2463 C   0  0  0  0  0  0
    4.3354   -3.3635    1.0982 N   0  0  0  0  0  0
    3.8962   -6.1753   -2.2350 C   0  0  0  0  0  0
    4.3157   -7.6208   -1.8858 C   0  0  0  0  0  0
    4.7656   -5.7058   -3.4195 C   0  0  0  0  0  0
    2.4167   -6.2063   -2.6708 C   0  0  0  0  0  0
   -3.4430    2.9686   -1.3273 C   0  0  0  0  0  0
    1.4140    5.4448   -4.7183 N   0  3  0  0  0  0
   -0.0421    2.2286    1.0652 H   0  0  0  0  0  0
   -0.3760   -0.3797   -0.4960 H   0  0  0  0  0  0
    4.6794    4.7686   -4.2732 H   0  0  0  0  0  0
    4.0732    6.3725   -4.6995 H   0  0  0  0  0  0
    3.8591    5.0183   -5.8172 H   0  0  0  0  0  0
    3.3258    3.8937   -2.4289 H   0  0  0  0  0  0
   -0.9700    4.3201   -2.6253 H   0  0  0  0  0  0
   -0.6612    6.3756   -5.7672 H   0  0  0  0  0  0
   -2.1127    6.1210   -3.2749 H   0  0  0  0  0  0
   -2.6047    6.9278   -4.7358 H   0  0  0  0  0  0
   -3.2163    4.7593   -5.7867 H   0  0  0  0  0  0
   -2.7481    3.8886   -4.3573 H   0  0  0  0  0  0
   -4.6985    6.0932   -3.8205 H   0  0  0  0  0  0
   -5.2891    4.9259   -4.9554 H   0  0  0  0  0  0
   -5.9871    4.3343   -2.6774 H   0  0  0  0  0  0
   -5.0085    3.0835   -3.3897 H   0  0  0  0  0  0
   -4.3434    6.2655   -1.4155 H   0  0  0  0  0  0
   -2.8970    6.3073    0.5992 H   0  0  0  0  0  0
   -1.8137    4.2230    1.4048 H   0  0  0  0  0  0
   -2.2779    1.5306    1.3510 H   0  0  0  0  0  0
   -2.3936    0.8731   -0.2530 H   0  0  0  0  0  0
   -0.6047    2.3054   -1.8075 H   0  0  0  0  0  0
    0.1915    0.2533    2.1977 H   0  0  0  0  0  0
    1.9401    0.5274   -0.9020 H   0  0  0  0  0  0
    2.1881    0.6558    0.8314 H   0  0  0  0  0  0
    1.8894   -1.6998    0.9748 H   0  0  0  0  0  0
    3.7377   -1.1473   -1.2379 H   0  0  0  0  0  0
    4.1185   -0.9077    0.4604 H   0  0  0  0  0  0
    3.3559   -3.4617   -2.1455 H   0  0  0  0  0  0
    4.8292   -6.6357    0.4219 H   0  0  0  0  0  0
    5.0271   -4.9556    2.2200 H   0  0  0  0  0  0
    4.1863   -8.2871   -2.7394 H   0  0  0  0  0  0
    3.7165   -8.0289   -1.0710 H   0  0  0  0  0  0
    5.3656   -7.6768   -1.5951 H   0  0  0  0  0  0
    5.8186   -5.6569   -3.1398 H   0  0  0  0  0  0
    4.4744   -4.7180   -3.7763 H   0  0  0  0  0  0
    4.6836   -6.3879   -4.2667 H   0  0  0  0  0  0
    2.2612   -6.8994   -3.4985 H   0  0  0  0  0  0
    2.0666   -5.2289   -3.0031 H   0  0  0  0  0  0
    1.7714   -6.5251   -1.8515 H   0  0  0  0  0  0
   -3.5993    2.0409   -1.8584 H   0  0  0  0  0  0
    1.5467   -1.8174   -0.6239 H   0  0  0  0  0  0
    1.5165    5.9839   -5.5785 H   0  0  0  0  0  0
  1  2  1  0  0  0
  1 41  1  0  0  0
  1 42  1  0  0  0
  1 43  1  0  0  0
  2 38  1  0  0  0
  2  3  2  0  0  0
  3  4  1  0  0  0
  3 44  1  0  0  0
  4 20  1  0  0  0
  4  5  2  0  0  0
  5  6  1  0  0  0
  5 45  1  0  0  0
  6  7  1  0  0  0
  6 38  2  0  0  0
  7  8  1  0  0  0
  7 46  1  0  0  0
  8  9  1  0  0  0
  8 47  1  0  0  0
  8 48  1  0  0  0
  9 10  1  0  0  0
  9 49  1  0  0  0
  9 50  1  0  0  0
 10 11  1  0  0  0
 10 51  1  0  0  0
 10 52  1  0  0  0
 11 12  1  0  0  0
 11 53  1  0  0  0
 11 54  1  0  0  0
 12 37  1  0  0  0
 12 13  2  0  0  0
 13 14  1  0  0  0
 13 55  1  0  0  0
 14 15  2  0  0  0
 14 56  1  0  0  0
 15 16  1  0  0  0
 15 57  1  0  0  0
 16 17  1  0  0  0
 16 37  2  0  0  0
 17 18  1  0  0  0
 17 58  1  0  0  0
 17 59  1  0  0  0
 18 39  1  0  0  0
 18 19  1  0  0  0
 18 22  1  0  0  0
 19 20  1  0  0  0
 19 60  1  0  0  0
 20 21  2  0  0  0
 22 40  1  0  0  0
 22 23  1  0  0  0
 22 24  1  0  0  0
 23 61  1  0  0  0
 24 25  1  0  0  0
 24 62  1  0  0  0
 24 63  1  0  0  0
 25 26  1  0  0  0
 25 64  1  0  0  0
 25 80  1  0  0  0
 26 27  1  0  0  0
 26 65  1  0  0  0
 26 66  1  0  0  0
 27 32  1  0  0  0
 27 28  2  0  0  0
 28 29  1  0  0  0
 28 67  1  0  0  0
 29 30  2  0  0  0
 29 33  1  0  0  0
 30 31  1  0  0  0
 30 68  1  0  0  0
 31 32  2  0  0  0
 31 69  1  0  0  0
 33 34  1  0  0  0
 33 35  1  0  0  0
 33 36  1  0  0  0
 34 70  1  0  0  0
 34 71  1  0  0  0
 34 72  1  0  0  0
 35 73  1  0  0  0
 35 74  1  0  0  0
 35 75  1  0  0  0
 36 76  1  0  0  0
 36 77  1  0  0  0
 36 78  1  0  0  0
 37 79  1  0  0  0
 38 81  1  0  0  0
M  CHG  2  25   1  38   1
M  END
> <s_m_source_file>
BACE_97.smi

> <i_m_source_file_index>
1

> <i_lp_mmshare_version>
42013

> <i_f3d_flags>
0

> <s_epik_input>
YzEyW2NIXWMoW0NIM10pbmMoW2NIXTEpW05IXVtDSDJdW0NIMl1bQ0gyXVtDSDJdYzNbY0hdW2NIXVtjSF1jKFtjSF0zKVtDSDJdW0NASF0oW05IXUMyPU8pW0NASF0oW09IXSlbQ0gyXVtOSF1bQ0gyXWM0W2NIXWMoW2NIXVtjSF1uNClDKFtDSDNdKShbQ0gzXSlbQ0gzXQ==

> <s_epik_cmdline>
J2VwaWtfcHl0aG9uJywgJy1waCcsICc3LjAnLCAnLXRuJywgJzgnLCAnLW1hJywgJzIwMCcsICctaW1hZScsICc8aW5maWxlLm1hZT4nLCAnLW9tYWUnLCAnPG91dGZpbGUubWFlPic=

> <r_lp_tautomer_probability>
0.999994

> <r_epik_Ionization_Penalty>
2.40136

> <r_epik_Ionization_Penalty_Charging>
2.40113

> <r_epik_Ionization_Penalty_Neutral>
0.000230927

> <r_epik_State_Penalty>
2.54551

> <r_epik_Charging_Adjusted_Penalty>
4.94664

> <i_epik_Tot_Q>
2

> <i_epik_Tot_abs_Q>
2

> <s_lp_Force_Field>
OPLS_2005

> <r_lp_Energy>
28.5298

> <b_lp_Chiralities_Consistent>
1

> <s_lp_Variant>
BACE_97.smi:1-3

$$$$
