BACE_153.smi:1
                    3D
 Structure written by MMmdl.
 75 76  0  0  1  0            999 V2000
   -1.8934    3.3053    3.3525 C   0  0  0  0  0  0
   -1.2840    3.1719    1.9532 C   0  0  0  0  0  0
   -2.1519    2.3200    1.0110 C   0  0  0  0  0  0
   -1.5974    2.2224   -0.4223 C   0  0  0  0  0  0
   -0.2715    1.6169   -0.4609 N   0  0  0  0  0  0
   -0.0187    0.3016   -0.3860 C   0  0  0  0  0  0
   -0.9009   -0.5549   -0.3180 O   0  0  0  0  0  0
    1.4613   -0.1058   -0.3571 C   0  0  2  0  0  0
    1.7876   -1.0173   -1.5523 C   0  0  0  0  0  0
    1.8465   -0.7859    0.9798 C   0  0  0  0  0  0
    1.5750    0.0437    2.2617 C   0  0  2  0  0  0
    2.2966    1.2543    2.1306 O   0  0  0  0  0  0
    2.0375   -0.6538    3.5687 C   0  0  2  0  0  0
    1.5813   -2.1341    3.6686 C   0  0  0  0  0  0
    1.6303   -2.7207    5.0736 C   0  0  0  0  0  0
    2.8222   -2.6575    5.8272 C   0  0  0  0  0  0
    2.8534   -3.1188    7.1661 C   0  0  0  0  0  0
    1.6916   -3.6997    7.7130 C   0  0  0  0  0  0
    0.5102   -3.7966    6.9547 C   0  0  0  0  0  0
    0.4761   -3.2998    5.6394 C   0  0  0  0  0  0
    3.9508   -3.0261    7.9926 O   0  0  0  0  0  0
    5.0807   -2.2831    7.5512 C   0  0  0  0  0  0
    5.9271   -1.9209    8.7770 C   0  0  0  0  0  0
    5.2017   -1.0498    9.8237 C   0  0  0  0  0  0
    4.9296    0.4075    9.3985 C   0  0  0  0  0  0
    3.5369    0.6535    8.7739 C   0  0  0  0  0  0
    3.3064    2.1259    8.3879 C   0  0  0  0  0  0
    3.9621    3.0129    8.9317 O   0  0  0  0  0  0
    2.3818    2.4391    7.4626 N   0  0  0  0  0  0
    1.5092    1.5411    6.7024 C   0  0  1  0  0  0
    0.2849    2.3645    6.2641 C   0  0  0  0  0  0
    2.2076    1.0111    5.4344 C   0  0  0  0  0  0
    3.3221    1.4194    5.1041 O   0  0  0  0  0  0
    1.5360    0.0812    4.7356 N   0  0  0  0  0  0
    2.0649    0.7962   -0.4705 H   0  0  0  0  0  0
    0.5115    0.2741    2.3380 H   0  0  0  0  0  0
    3.1291   -0.6626    3.5992 H   0  0  0  0  0  0
    1.1849    0.7047    7.3237 H   0  0  0  0  0  0
   -1.2607    3.9192    3.9936 H   0  0  0  0  0  0
   -2.0052    2.3302    3.8274 H   0  0  0  0  0  0
   -2.8768    3.7743    3.3109 H   0  0  0  0  0  0
   -1.1478    4.1656    1.5257 H   0  0  0  0  0  0
   -0.2890    2.7355    2.0424 H   0  0  0  0  0  0
   -2.2690    1.3190    1.4285 H   0  0  0  0  0  0
   -3.1548    2.7459    0.9669 H   0  0  0  0  0  0
   -2.2830    1.6564   -1.0548 H   0  0  0  0  0  0
   -1.5288    3.2183   -0.8607 H   0  0  0  0  0  0
    0.5164    2.2469   -0.5102 H   0  0  0  0  0  0
    1.5139   -0.5468   -2.4976 H   0  0  0  0  0  0
    1.2595   -1.9696   -1.4886 H   0  0  0  0  0  0
    2.8551   -1.2350   -1.5950 H   0  0  0  0  0  0
    1.3119   -1.7342    1.0393 H   0  0  0  0  0  0
    2.9053   -1.0469    0.9478 H   0  0  0  0  0  0
    2.1932    1.7528    2.9274 H   0  0  0  0  0  0
    0.5569   -2.2161    3.3021 H   0  0  0  0  0  0
    2.1903   -2.7604    3.0160 H   0  0  0  0  0  0
    3.6945   -2.2208    5.3660 H   0  0  0  0  0  0
    1.7035   -4.0643    8.7298 H   0  0  0  0  0  0
   -0.3748   -4.2390    7.3876 H   0  0  0  0  0  0
   -0.4411   -3.3587    5.0719 H   0  0  0  0  0  0
    5.6629   -2.8943    6.8607 H   0  0  0  0  0  0
    4.8129   -1.3696    7.0238 H   0  0  0  0  0  0
    6.2523   -2.8449    9.2566 H   0  0  0  0  0  0
    6.8384   -1.4173    8.4527 H   0  0  0  0  0  0
    4.2805   -1.5293   10.1565 H   0  0  0  0  0  0
    5.8424   -1.0187   10.7056 H   0  0  0  0  0  0
    5.0158    1.0285   10.2914 H   0  0  0  0  0  0
    5.7157    0.7503    8.7239 H   0  0  0  0  0  0
    3.4075    0.0242    7.8977 H   0  0  0  0  0  0
    2.7590    0.3624    9.4805 H   0  0  0  0  0  0
    2.2817    3.4211    7.2498 H   0  0  0  0  0  0
   -0.4448    1.7496    5.7363 H   0  0  0  0  0  0
    0.5653    3.1893    5.6071 H   0  0  0  0  0  0
   -0.2258    2.7914    7.1279 H   0  0  0  0  0  0
    0.6235   -0.1874    5.0748 H   0  0  0  0  0  0
  1  2  1  0  0  0
  1 39  1  0  0  0
  1 40  1  0  0  0
  1 41  1  0  0  0
  2  3  1  0  0  0
  2 42  1  0  0  0
  2 43  1  0  0  0
  3  4  1  0  0  0
  3 44  1  0  0  0
  3 45  1  0  0  0
  4  5  1  0  0  0
  4 46  1  0  0  0
  4 47  1  0  0  0
  5  6  1  0  0  0
  5 48  1  0  0  0
  6  7  2  0  0  0
  6  8  1  0  0  0
  8 35  1  0  0  0
  8  9  1  0  0  0
  8 10  1  0  0  0
  9 49  1  0  0  0
  9 50  1  0  0  0
  9 51  1  0  0  0
 10 11  1  0  0  0
 10 52  1  0  0  0
 10 53  1  0  0  0
 11 36  1  0  0  0
 11 12  1  0  0  0
 11 13  1  0  0  0
 12 54  1  0  0  0
 13 37  1  0  0  0
 13 34  1  0  0  0
 13 14  1  0  0  0
 14 15  1  0  0  0
 14 55  1  0  0  0
 14 56  1  0  0  0
 15 20  1  0  0  0
 15 16  2  0  0  0
 16 17  1  0  0  0
 16 57  1  0  0  0
 17 18  2  0  0  0
 17 21  1  0  0  0
 18 19  1  0  0  0
 18 58  1  0  0  0
 19 20  2  0  0  0
 19 59  1  0  0  0
 20 60  1  0  0  0
 21 22  1  0  0  0
 22 23  1  0  0  0
 22 61  1  0  0  0
 22 62  1  0  0  0
 23 24  1  0  0  0
 23 63  1  0  0  0
 23 64  1  0  0  0
 24 25  1  0  0  0
 24 65  1  0  0  0
 24 66  1  0  0  0
 25 26  1  0  0  0
 25 67  1  0  0  0
 25 68  1  0  0  0
 26 27  1  0  0  0
 26 69  1  0  0  0
 26 70  1  0  0  0
 27 28  2  0  0  0
 27 29  1  0  0  0
 29 30  1  0  0  0
 29 71  1  0  0  0
 30 38  1  0  0  0
 30 31  1  0  0  0
 30 32  1  0  0  0
 31 72  1  0  0  0
 31 73  1  0  0  0
 31 74  1  0  0  0
 32 33  2  0  0  0
 32 34  1  0  0  0
 34 75  1  0  0  0
M  END
> <s_m_source_file>
BACE_153.smi

> <i_m_source_file_index>
1

> <i_lp_mmshare_version>
42013

> <i_f3d_flags>
0

> <s_epik_input>
W0NIM11bQ0gyXVtDSDJdW0NIMl1bTkhdQyg9TylbQ0BIXShbQ0gzXSlbQ0gyXVtDQEhdKFtPSF0pW0NASF0oW0NIMl0xKVtOSF1DKD1PKVtDQEhdKFtDSDNdKVtOSF1DKD1PKVtDSDJdW0NIMl1bQ0gyXVtDSDJdW0NIMl1PYyhbY0hdYzEyKVtjSF1bY0hdW2NIXTI=

> <s_epik_cmdline>
J2VwaWtfcHl0aG9uJywgJy1waCcsICc3LjAnLCAnLXRuJywgJzgnLCAnLW1hJywgJzIwMCcsICctaW1hZScsICc8aW5maWxlLm1hZT4nLCAnLW9tYWUnLCAnPG91dGZpbGUubWFlPic=

> <r_lp_tautomer_probability>
1

> <r_epik_Ionization_Penalty>
1.39725e-07

> <r_epik_Ionization_Penalty_Charging>
0

> <r_epik_Ionization_Penalty_Neutral>
1.39725e-07

> <r_epik_State_Penalty>
-0

> <r_epik_Charging_Adjusted_Penalty>
0

> <i_epik_Tot_Q>
0

> <i_epik_Tot_abs_Q>
0

> <s_lp_Force_Field>
OPLS_2005

> <r_lp_Energy>
22.772

> <b_lp_Chiralities_Consistent>
1

> <s_lp_Variant>
BACE_153.smi:1-1

$$$$
