BACE_115.smi:1
                    3D
 Structure written by MMmdl.
 82 85  0  0  1  0            999 V2000
   -4.1678    4.4300    1.7184 C   0  0  0  0  0  0
   -3.1554    3.3842    2.2125 C   0  0  0  0  0  0
   -2.8925    3.5159    3.7204 C   0  0  0  0  0  0
   -1.8584    3.4295    1.4136 C   0  0  0  0  0  0
   -1.0733    4.6011    1.3875 C   0  0  0  0  0  0
    0.1212    4.6339    0.6472 C   0  0  0  0  0  0
    0.5378    3.4970   -0.0687 C   0  0  0  0  0  0
   -0.2300    2.3085   -0.0552 C   0  0  0  0  0  0
   -1.4317    2.2911    0.6956 C   0  0  0  0  0  0
    0.2710    1.0784   -0.8354 C   0  0  0  0  0  0
   -0.6869   -0.1353   -0.7634 C   0  0  0  0  0  0
    0.4176    1.4433   -2.3270 C   0  0  0  0  0  0
    1.6107    0.6723   -0.3357 N   0  3  0  0  0  0
    1.7441    0.3724    1.1109 C   0  0  0  0  0  0
    3.1862   -0.0500    1.4445 C   0  0  1  0  0  0
    3.3441    0.0383    2.8446 O   0  0  0  0  0  0
    3.5335   -1.4787    0.9322 C   0  0  2  0  0  0
    3.0382   -2.6558    1.8160 C   0  0  0  0  0  0
    4.0466   -3.2305    2.8034 C   0  0  0  0  0  0
    4.0444   -2.8006    4.1469 C   0  0  0  0  0  0
    4.9430   -3.3609    5.0729 C   0  0  0  0  0  0
    5.8381   -4.3669    4.6652 C   0  0  0  0  0  0
    5.8467   -4.8110    3.3262 C   0  0  0  0  0  0
    6.7818   -5.9328    2.9009 C   0  0  0  0  0  0
    8.2752   -5.6342    3.1363 C   0  0  0  0  0  0
    8.8437   -4.4862    2.2862 C   0  0  0  0  0  0
    9.0014   -4.8596    0.8024 C   0  0  0  0  0  0
    9.6630   -3.8131    0.0367 N   0  0  0  0  0  0
    8.9941   -2.6584   -0.3957 C   0  0  0  0  0  0
    9.7544   -1.6636   -1.0431 C   0  0  0  0  0  0
    9.1407   -0.4890   -1.5148 C   0  0  0  0  0  0
    7.7581   -0.2984   -1.3406 C   0  0  0  0  0  0
    6.9809   -1.2769   -0.6836 C   0  0  0  0  0  0
    7.6039   -2.4588   -0.2194 C   0  0  0  0  0  0
    5.5018   -1.0736   -0.5328 C   0  0  0  0  0  0
    4.8650   -0.4307   -1.3691 O   0  0  0  0  0  0
    4.9506   -1.5786    0.5842 N   0  0  0  0  0  0
    4.9518   -4.2363    2.3977 C   0  0  0  0  0  0
    3.8596    0.6899    1.0099 H   0  0  0  0  0  0
    2.9928   -1.6003   -0.0081 H   0  0  0  0  0  0
   -4.3856    4.2936    0.6586 H   0  0  0  0  0  0
   -3.7992    5.4468    1.8550 H   0  0  0  0  0  0
   -5.1105    4.3472    2.2601 H   0  0  0  0  0  0
   -3.6100    2.4057    2.0530 H   0  0  0  0  0  0
   -2.2189    2.7328    4.0694 H   0  0  0  0  0  0
   -3.8192    3.4289    4.2882 H   0  0  0  0  0  0
   -2.4428    4.4777    3.9687 H   0  0  0  0  0  0
   -1.3831    5.4789    1.9352 H   0  0  0  0  0  0
    0.7205    5.5324    0.6305 H   0  0  0  0  0  0
    1.4638    3.5437   -0.6224 H   0  0  0  0  0  0
   -2.0489    1.4073    0.7341 H   0  0  0  0  0  0
   -1.6569    0.0982   -1.2041 H   0  0  0  0  0  0
   -0.8665   -0.4712    0.2575 H   0  0  0  0  0  0
   -0.2844   -0.9875   -1.3127 H   0  0  0  0  0  0
   -0.5321    1.7768   -2.7468 H   0  0  0  0  0  0
    0.7506    0.5872   -2.9154 H   0  0  0  0  0  0
    1.1438    2.2398   -2.4897 H   0  0  0  0  0  0
    1.9017   -0.1438   -0.8547 H   0  0  0  0  0  0
    1.4914    1.2681    1.6797 H   0  0  0  0  0  0
    1.0453   -0.4049    1.4174 H   0  0  0  0  0  0
    4.2386   -0.1775    3.0619 H   0  0  0  0  0  0
    2.1228   -2.3844    2.3430 H   0  0  0  0  0  0
    2.7475   -3.4767    1.1589 H   0  0  0  0  0  0
    3.3438   -2.0492    4.4792 H   0  0  0  0  0  0
    4.9347   -3.0301    6.1010 H   0  0  0  0  0  0
    6.5089   -4.8050    5.3894 H   0  0  0  0  0  0
    6.5046   -6.8231    3.4664 H   0  0  0  0  0  0
    6.6098   -6.1814    1.8533 H   0  0  0  0  0  0
    8.4390   -5.4107    4.1906 H   0  0  0  0  0  0
    8.8536   -6.5374    2.9385 H   0  0  0  0  0  0
    8.2256   -3.5950    2.3978 H   0  0  0  0  0  0
    9.8245   -4.2212    2.6830 H   0  0  0  0  0  0
    9.6140   -5.7577    0.7204 H   0  0  0  0  0  0
    8.0421   -5.1099    0.3502 H   0  0  0  0  0  0
   10.6600   -3.8870   -0.1084 H   0  0  0  0  0  0
   10.8166   -1.7997   -1.1866 H   0  0  0  0  0  0
    9.7309    0.2648   -2.0146 H   0  0  0  0  0  0
    7.3005    0.6067   -1.7133 H   0  0  0  0  0  0
    7.0031   -3.2134    0.2651 H   0  0  0  0  0  0
    5.5488   -2.0729    1.2311 H   0  0  0  0  0  0
    4.9454   -4.5801    1.3735 H   0  0  0  0  0  0
    2.2534    1.4224   -0.5467 H   0  0  0  0  0  0
  1  2  1  0  0  0
  1 41  1  0  0  0
  1 42  1  0  0  0
  1 43  1  0  0  0
  2  3  1  0  0  0
  2  4  1  0  0  0
  2 44  1  0  0  0
  3 45  1  0  0  0
  3 46  1  0  0  0
  3 47  1  0  0  0
  4  9  1  0  0  0
  4  5  2  0  0  0
  5  6  1  0  0  0
  5 48  1  0  0  0
  6  7  2  0  0  0
  6 49  1  0  0  0
  7  8  1  0  0  0
  7 50  1  0  0  0
  8  9  2  0  0  0
  8 10  1  0  0  0
  9 51  1  0  0  0
 10 11  1  0  0  0
 10 12  1  0  0  0
 10 13  1  0  0  0
 11 52  1  0  0  0
 11 53  1  0  0  0
 11 54  1  0  0  0
 12 55  1  0  0  0
 12 56  1  0  0  0
 12 57  1  0  0  0
 13 14  1  0  0  0
 13 58  1  0  0  0
 13 82  1  0  0  0
 14 15  1  0  0  0
 14 59  1  0  0  0
 14 60  1  0  0  0
 15 39  1  0  0  0
 15 16  1  0  0  0
 15 17  1  0  0  0
 16 61  1  0  0  0
 17 40  1  0  0  0
 17 37  1  0  0  0
 17 18  1  0  0  0
 18 19  1  0  0  0
 18 62  1  0  0  0
 18 63  1  0  0  0
 19 38  1  0  0  0
 19 20  2  0  0  0
 20 21  1  0  0  0
 20 64  1  0  0  0
 21 22  2  0  0  0
 21 65  1  0  0  0
 22 23  1  0  0  0
 22 66  1  0  0  0
 23 24  1  0  0  0
 23 38  2  0  0  0
 24 25  1  0  0  0
 24 67  1  0  0  0
 24 68  1  0  0  0
 25 26  1  0  0  0
 25 69  1  0  0  0
 25 70  1  0  0  0
 26 27  1  0  0  0
 26 71  1  0  0  0
 26 72  1  0  0  0
 27 28  1  0  0  0
 27 73  1  0  0  0
 27 74  1  0  0  0
 28 29  1  0  0  0
 28 75  1  0  0  0
 29 34  1  0  0  0
 29 30  2  0  0  0
 30 31  1  0  0  0
 30 76  1  0  0  0
 31 32  2  0  0  0
 31 77  1  0  0  0
 32 33  1  0  0  0
 32 78  1  0  0  0
 33 34  2  0  0  0
 33 35  1  0  0  0
 34 79  1  0  0  0
 35 36  2  0  0  0
 35 37  1  0  0  0
 37 80  1  0  0  0
 38 81  1  0  0  0
M  CHG  1  13   1
M  END
> <s_m_source_file>
BACE_115.smi

> <i_m_source_file_index>
1

> <i_lp_mmshare_version>
42013

> <i_f3d_flags>
0

> <s_epik_input>
W0NIM11bQ0hdKFtDSDNdKWMxW2NIXVtjSF1bY0hdYyhbY0hdMSlDKFtDSDNdKShbQ0gzXSlbTkhdW0NIMl1bQ0BASF0oW09IXSlbQ0BIXShbQ0gyXTIpW05IXUMoPU8pYyhbY0hdMylbY0hdW2NIXVtjSF1jM1tOSF1bQ0gyXVtDSDJdW0NIMl1bQ0gyXWMoW2NIXTQpW2NIXVtjSF1bY0hdYzI0

> <s_epik_cmdline>
J2VwaWtfcHl0aG9uJywgJy1waCcsICc3LjAnLCAnLXRuJywgJzgnLCAnLW1hJywgJzIwMCcsICctaW1hZScsICc8aW5maWxlLm1hZT4nLCAnLW9tYWUnLCAnPG91dGZpbGUubWFlPic=

> <r_epik_Ionization_Penalty>
0.0196976

> <r_epik_Ionization_Penalty_Charging>
0.0191194

> <r_epik_Ionization_Penalty_Neutral>
0.000578222

> <r_epik_State_Penalty>
0.0152524

> <r_epik_Charging_Adjusted_Penalty>
0.0343718

> <i_epik_Tot_Q>
1

> <i_epik_Tot_abs_Q>
1

> <s_lp_Force_Field>
OPLS_2005

> <r_lp_Energy>
33.0906

> <b_lp_Chiralities_Consistent>
1

> <s_lp_Variant>
BACE_115.smi:1-1

$$$$
BACE_115.smi:1
                    3D
 Structure written by MMmdl.
 81 84  0  0  1  0            999 V2000
    1.0754    5.9944    0.1051 C   0  0  0  0  0  0
    0.7547    5.1130   -1.1114 C   0  0  0  0  0  0
    0.1526    5.9305   -2.2655 C   0  0  0  0  0  0
   -0.1306    3.9351   -0.7238 C   0  0  0  0  0  0
   -1.4596    4.1405   -0.2992 C   0  0  0  0  0  0
   -2.2623    3.0433    0.0601 C   0  0  0  0  0  0
   -1.7406    1.7369    0.0109 C   0  0  0  0  0  0
   -0.4033    1.5080   -0.3932 C   0  0  0  0  0  0
    0.3831    2.6225   -0.7754 C   0  0  0  0  0  0
    0.1989    0.0904   -0.4451 C   0  0  0  0  0  0
   -0.5810   -0.9344    0.4145 C   0  0  0  0  0  0
    0.1586   -0.3911   -1.9068 C   0  0  0  0  0  0
    1.6114    0.1072   -0.0279 N   0  0  0  0  0  0
    1.8892    0.4223    1.3763 C   0  0  0  0  0  0
    3.3956    0.6307    1.6099 C   0  0  1  0  0  0
    3.7510    1.8973    1.0906 O   0  0  0  0  0  0
    3.7970    0.5331    3.1062 C   0  0  2  0  0  0
    3.0791    1.5132    4.0723 C   0  0  0  0  0  0
    3.6335    2.9307    4.1318 C   0  0  0  0  0  0
    3.0699    3.9409    3.3247 C   0  0  0  0  0  0
    3.5517    5.2608    3.4005 C   0  0  0  0  0  0
    4.5869    5.5817    4.2980 C   0  0  0  0  0  0
    5.1508    4.5827    5.1189 C   0  0  0  0  0  0
    6.2334    4.9483    6.1212 C   0  0  0  0  0  0
    7.5497    5.4190    5.4749 C   0  0  0  0  0  0
    8.3299    4.3257    4.7262 C   0  0  0  0  0  0
    8.9527    3.2784    5.6669 C   0  0  0  0  0  0
    9.8419    2.3595    4.9696 N   0  0  0  0  0  0
    9.3640    1.3236    4.1534 C   0  0  0  0  0  0
   10.3045    0.5893    3.4029 C   0  0  0  0  0  0
    9.8868   -0.4624    2.5672 C   0  0  0  0  0  0
    8.5211   -0.7853    2.4702 C   0  0  0  0  0  0
    7.5620   -0.0552    3.2054 C   0  0  0  0  0  0
    7.9928    0.9892    4.0570 C   0  0  0  0  0  0
    6.1077   -0.4140    3.0984 C   0  0  0  0  0  0
    5.7569   -1.5622    2.8253 O   0  0  0  0  0  0
    5.2500    0.6082    3.2484 N   0  0  0  0  0  0
    4.6748    3.2568    5.0288 C   0  0  0  0  0  0
    3.9468   -0.1279    1.0519 H   0  0  0  0  0  0
    3.4867   -0.4624    3.4296 H   0  0  0  0  0  0
    1.5571    5.4118    0.8908 H   0  0  0  0  0  0
    0.1744    6.4411    0.5267 H   0  0  0  0  0  0
    1.7523    6.8054   -0.1653 H   0  0  0  0  0  0
    1.7025    4.7098   -1.4710 H   0  0  0  0  0  0
   -0.0255    5.3020   -3.1386 H   0  0  0  0  0  0
    0.8274    6.7311   -2.5698 H   0  0  0  0  0  0
   -0.7959    6.3895   -1.9857 H   0  0  0  0  0  0
   -1.8696    5.1384   -0.2485 H   0  0  0  0  0  0
   -3.2817    3.2039    0.3784 H   0  0  0  0  0  0
   -2.3893    0.9236    0.2951 H   0  0  0  0  0  0
    1.4012    2.4725   -1.1038 H   0  0  0  0  0  0
   -1.5804   -1.1174    0.0191 H   0  0  0  0  0  0
   -0.6939   -0.6036    1.4474 H   0  0  0  0  0  0
   -0.0735   -1.8999    0.4323 H   0  0  0  0  0  0
   -0.8634   -0.4190   -2.2866 H   0  0  0  0  0  0
    0.5735   -1.3947   -2.0091 H   0  0  0  0  0  0
    0.7313    0.2672   -2.5615 H   0  0  0  0  0  0
    2.0889   -0.7391   -0.3205 H   0  0  0  0  0  0
    1.3350    1.3065    1.6921 H   0  0  0  0  0  0
    1.5473   -0.4006    2.0041 H   0  0  0  0  0  0
    4.6836    2.0109    1.1905 H   0  0  0  0  0  0
    2.0106    1.5535    3.8623 H   0  0  0  0  0  0
    3.1476    1.1054    5.0816 H   0  0  0  0  0  0
    2.2644    3.7055    2.6443 H   0  0  0  0  0  0
    3.1184    6.0302    2.7788 H   0  0  0  0  0  0
    4.9391    6.6006    4.3627 H   0  0  0  0  0  0
    5.8408    5.7491    6.7487 H   0  0  0  0  0  0
    6.4176    4.1107    6.7942 H   0  0  0  0  0  0
    7.3426    6.2439    4.7927 H   0  0  0  0  0  0
    8.1937    5.8364    6.2499 H   0  0  0  0  0  0
    7.6873    3.8488    3.9858 H   0  0  0  0  0  0
    9.1306    4.8058    4.1623 H   0  0  0  0  0  0
    9.5470    3.7861    6.4269 H   0  0  0  0  0  0
    8.1866    2.7230    6.2072 H   0  0  0  0  0  0
   10.8309    2.5649    4.9691 H   0  0  0  0  0  0
   11.3561    0.8291    3.4660 H   0  0  0  0  0  0
   10.6152   -1.0213    1.9984 H   0  0  0  0  0  0
    8.2161   -1.5939    1.8217 H   0  0  0  0  0  0
    7.2611    1.5332    4.6346 H   0  0  0  0  0  0
    5.6352    1.5192    3.4520 H   0  0  0  0  0  0
    5.0967    2.4894    5.6617 H   0  0  0  0  0  0
  1  2  1  0  0  0
  1 41  1  0  0  0
  1 42  1  0  0  0
  1 43  1  0  0  0
  2  3  1  0  0  0
  2  4  1  0  0  0
  2 44  1  0  0  0
  3 45  1  0  0  0
  3 46  1  0  0  0
  3 47  1  0  0  0
  4  9  1  0  0  0
  4  5  2  0  0  0
  5  6  1  0  0  0
  5 48  1  0  0  0
  6  7  2  0  0  0
  6 49  1  0  0  0
  7  8  1  0  0  0
  7 50  1  0  0  0
  8  9  2  0  0  0
  8 10  1  0  0  0
  9 51  1  0  0  0
 10 11  1  0  0  0
 10 12  1  0  0  0
 10 13  1  0  0  0
 11 52  1  0  0  0
 11 53  1  0  0  0
 11 54  1  0  0  0
 12 55  1  0  0  0
 12 56  1  0  0  0
 12 57  1  0  0  0
 13 14  1  0  0  0
 13 58  1  0  0  0
 14 15  1  0  0  0
 14 59  1  0  0  0
 14 60  1  0  0  0
 15 39  1  0  0  0
 15 16  1  0  0  0
 15 17  1  0  0  0
 16 61  1  0  0  0
 17 40  1  0  0  0
 17 37  1  0  0  0
 17 18  1  0  0  0
 18 19  1  0  0  0
 18 62  1  0  0  0
 18 63  1  0  0  0
 19 38  1  0  0  0
 19 20  2  0  0  0
 20 21  1  0  0  0
 20 64  1  0  0  0
 21 22  2  0  0  0
 21 65  1  0  0  0
 22 23  1  0  0  0
 22 66  1  0  0  0
 23 24  1  0  0  0
 23 38  2  0  0  0
 24 25  1  0  0  0
 24 67  1  0  0  0
 24 68  1  0  0  0
 25 26  1  0  0  0
 25 69  1  0  0  0
 25 70  1  0  0  0
 26 27  1  0  0  0
 26 71  1  0  0  0
 26 72  1  0  0  0
 27 28  1  0  0  0
 27 73  1  0  0  0
 27 74  1  0  0  0
 28 29  1  0  0  0
 28 75  1  0  0  0
 29 34  1  0  0  0
 29 30  2  0  0  0
 30 31  1  0  0  0
 30 76  1  0  0  0
 31 32  2  0  0  0
 31 77  1  0  0  0
 32 33  1  0  0  0
 32 78  1  0  0  0
 33 34  2  0  0  0
 33 35  1  0  0  0
 34 79  1  0  0  0
 35 36  2  0  0  0
 35 37  1  0  0  0
 37 80  1  0  0  0
 38 81  1  0  0  0
M  END
> <s_m_source_file>
BACE_115.smi

> <i_m_source_file_index>
1

> <i_lp_mmshare_version>
42013

> <i_f3d_flags>
0

> <s_epik_input>
W0NIM11bQ0hdKFtDSDNdKWMxW2NIXVtjSF1bY0hdYyhbY0hdMSlDKFtDSDNdKShbQ0gzXSlbTkhdW0NIMl1bQ0BASF0oW09IXSlbQ0BIXShbQ0gyXTIpW05IXUMoPU8pYyhbY0hdMylbY0hdW2NIXVtjSF1jM1tOSF1bQ0gyXVtDSDJdW0NIMl1bQ0gyXWMoW2NIXTQpW2NIXVtjSF1bY0hdYzI0

> <s_epik_cmdline>
J2VwaWtfcHl0aG9uJywgJy1waCcsICc3LjAnLCAnLXRuJywgJzgnLCAnLW1hJywgJzIwMCcsICctaW1hZScsICc8aW5maWxlLm1hZT4nLCAnLW9tYWUnLCAnPG91dGZpbGUubWFlPic=

> <r_epik_Ionization_Penalty>
2.04457

> <r_epik_Ionization_Penalty_Charging>
0

> <r_epik_Ionization_Penalty_Neutral>
2.04457

> <r_epik_State_Penalty>
2.17586

> <r_epik_Charging_Adjusted_Penalty>
2.17586

> <i_epik_Tot_Q>
0

> <i_epik_Tot_abs_Q>
0

> <s_lp_Force_Field>
OPLS_2005

> <r_lp_Energy>
37.9725

> <b_lp_Chiralities_Consistent>
1

> <s_lp_Variant>
BACE_115.smi:1-2

$$$$
