BACE_51.smi:1
                    3D
 Structure written by MMmdl.
 79 81  0  0  1  0            999 V2000
    0.3029    2.7068    4.2079 C   0  0  0  0  0  0
   -0.5402    3.5396    3.2286 C   0  0  0  0  0  0
   -2.0314    3.1754    3.3101 C   0  0  0  0  0  0
   -0.0101    3.4292    1.8050 C   0  0  0  0  0  0
    0.5011    4.5688    1.1480 C   0  0  0  0  0  0
    1.0083    4.4654   -0.1616 C   0  0  0  0  0  0
    1.0132    3.2218   -0.8216 C   0  0  0  0  0  0
    0.5038    2.0777   -0.1744 C   0  0  0  0  0  0
    0.5238    0.7300   -0.8739 C   0  0  0  0  0  0
    1.8086    0.0207   -0.6891 N   0  3  0  0  0  0
    2.1190   -0.3545    0.7074 C   0  0  0  0  0  0
    3.3817   -1.2353    0.7943 C   0  0  1  0  0  0
    4.5107   -0.4797    0.4025 O   0  0  0  0  0  0
    3.6597   -1.8644    2.1927 C   0  0  2  0  0  0
    2.9554   -3.2281    2.3802 C   0  0  0  0  0  0
    3.5751   -4.4142    1.5967 C   0  0  2  0  0  0
    2.5883   -5.5919    1.5206 C   0  0  0  0  0  0
    4.9710   -4.8613    2.1033 C   0  0  0  0  0  0
    5.0156   -5.3850    3.5523 C   0  0  0  0  0  0
    6.3481   -6.0473    3.9541 C   0  0  0  0  0  0
    7.5141   -5.0744    4.2124 C   0  0  0  0  0  0
    8.4514   -4.8608    3.0061 C   0  0  0  0  0  0
    9.6602   -3.9502    3.3111 C   0  0  0  0  0  0
    9.3704   -2.4479    3.1614 C   0  0  0  0  0  0
    8.3446   -2.0799    4.0728 O   0  0  0  0  0  0
    7.5769   -0.9880    3.7473 C   0  0  0  0  0  0
    6.2091   -1.0149    4.0689 C   0  0  0  0  0  0
    5.3966    0.0583    3.6521 C   0  0  0  0  0  0
    6.0080    1.1588    3.0173 C   0  0  0  0  0  0
    7.3946    1.1087    2.7630 C   0  0  0  0  0  0
    8.1421    2.4384    1.9586 Cl  0  0  0  0  0  0
    8.1630    0.0500    3.1037 N   0  0  0  0  0  0
    3.9143    0.0205    3.8667 C   0  0  0  0  0  0
    3.3691    0.8707    4.5664 O   0  0  0  0  0  0
    3.2174   -0.9672    3.2708 N   0  0  0  0  0  0
   -0.0138    2.1876    1.1333 C   0  0  0  0  0  0
    3.2925   -2.0284    0.0537 H   0  0  0  0  0  0
    4.7242   -2.0630    2.2753 H   0  0  0  0  0  0
    3.7215   -4.0989    0.5648 H   0  0  0  0  0  0
    1.3487    3.0147    4.1832 H   0  0  0  0  0  0
    0.2646    1.6429    3.9722 H   0  0  0  0  0  0
   -0.0506    2.8302    5.2318 H   0  0  0  0  0  0
   -0.4494    4.5825    3.5352 H   0  0  0  0  0  0
   -2.6247    3.8054    2.6467 H   0  0  0  0  0  0
   -2.4128    3.3143    4.3221 H   0  0  0  0  0  0
   -2.2100    2.1365    3.0314 H   0  0  0  0  0  0
    0.5095    5.5277    1.6454 H   0  0  0  0  0  0
    1.3990    5.3414   -0.6581 H   0  0  0  0  0  0
    1.4118    3.1499   -1.8232 H   0  0  0  0  0  0
   -0.2960    0.1073   -0.5130 H   0  0  0  0  0  0
    0.3571    0.8770   -1.9415 H   0  0  0  0  0  0
    1.7806   -0.8244   -1.2412 H   0  0  0  0  0  0
    2.2461    0.5485    1.3053 H   0  0  0  0  0  0
    1.2660   -0.8971    1.1164 H   0  0  0  0  0  0
    5.2730   -1.0385    0.4302 H   0  0  0  0  0  0
    2.9282   -3.4859    3.4393 H   0  0  0  0  0  0
    1.9095   -3.1134    2.0923 H   0  0  0  0  0  0
    2.2932   -5.9398    2.5104 H   0  0  0  0  0  0
    3.0207   -6.4362    0.9826 H   0  0  0  0  0  0
    1.6779   -5.3035    0.9941 H   0  0  0  0  0  0
    5.3407   -5.6437    1.4391 H   0  0  0  0  0  0
    5.6773   -4.0398    1.9977 H   0  0  0  0  0  0
    4.7823   -4.5829    4.2528 H   0  0  0  0  0  0
    4.2343   -6.1324    3.6844 H   0  0  0  0  0  0
    6.1642   -6.5855    4.8849 H   0  0  0  0  0  0
    6.6331   -6.8138    3.2325 H   0  0  0  0  0  0
    7.1197   -4.1303    4.5837 H   0  0  0  0  0  0
    8.1144   -5.4792    5.0282 H   0  0  0  0  0  0
    8.8306   -5.8361    2.6989 H   0  0  0  0  0  0
    7.9039   -4.4729    2.1482 H   0  0  0  0  0  0
   10.0498   -4.1618    4.3074 H   0  0  0  0  0  0
   10.4639   -4.2022    2.6186 H   0  0  0  0  0  0
   10.2689   -1.8649    3.3678 H   0  0  0  0  0  0
    9.0758   -2.2450    2.1298 H   0  0  0  0  0  0
    5.7843   -1.8733    4.5698 H   0  0  0  0  0  0
    5.4238    2.0112    2.7014 H   0  0  0  0  0  0
    2.2332   -1.0084    3.4920 H   0  0  0  0  0  0
   -0.3998    1.3094    1.6298 H   0  0  0  0  0  0
    2.5561    0.6053   -1.0357 H   0  0  0  0  0  0
  1  2  1  0  0  0
  1 40  1  0  0  0
  1 41  1  0  0  0
  1 42  1  0  0  0
  2  3  1  0  0  0
  2  4  1  0  0  0
  2 43  1  0  0  0
  3 44  1  0  0  0
  3 45  1  0  0  0
  3 46  1  0  0  0
  4 36  1  0  0  0
  4  5  2  0  0  0
  5  6  1  0  0  0
  5 47  1  0  0  0
  6  7  2  0  0  0
  6 48  1  0  0  0
  7  8  1  0  0  0
  7 49  1  0  0  0
  8  9  1  0  0  0
  8 36  2  0  0  0
  9 10  1  0  0  0
  9 50  1  0  0  0
  9 51  1  0  0  0
 10 11  1  0  0  0
 10 52  1  0  0  0
 10 79  1  0  0  0
 11 12  1  0  0  0
 11 53  1  0  0  0
 11 54  1  0  0  0
 12 37  1  0  0  0
 12 13  1  0  0  0
 12 14  1  0  0  0
 13 55  1  0  0  0
 14 38  1  0  0  0
 14 35  1  0  0  0
 14 15  1  0  0  0
 15 16  1  0  0  0
 15 56  1  0  0  0
 15 57  1  0  0  0
 16 39  1  0  0  0
 16 17  1  0  0  0
 16 18  1  0  0  0
 17 58  1  0  0  0
 17 59  1  0  0  0
 17 60  1  0  0  0
 18 19  1  0  0  0
 18 61  1  0  0  0
 18 62  1  0  0  0
 19 20  1  0  0  0
 19 63  1  0  0  0
 19 64  1  0  0  0
 20 21  1  0  0  0
 20 65  1  0  0  0
 20 66  1  0  0  0
 21 22  1  0  0  0
 21 67  1  0  0  0
 21 68  1  0  0  0
 22 23  1  0  0  0
 22 69  1  0  0  0
 22 70  1  0  0  0
 23 24  1  0  0  0
 23 71  1  0  0  0
 23 72  1  0  0  0
 24 25  1  0  0  0
 24 73  1  0  0  0
 24 74  1  0  0  0
 25 26  1  0  0  0
 26 32  1  0  0  0
 26 27  2  0  0  0
 27 28  1  0  0  0
 27 75  1  0  0  0
 28 29  2  0  0  0
 28 33  1  0  0  0
 29 30  1  0  0  0
 29 76  1  0  0  0
 30 31  1  0  0  0
 30 32  2  0  0  0
 33 34  2  0  0  0
 33 35  1  0  0  0
 35 77  1  0  0  0
 36 78  1  0  0  0
M  CHG  1  10   1
M  END
> <s_m_source_file>
BACE_51.smi

> <i_m_source_file_index>
1

> <i_lp_mmshare_version>
42013

> <i_f3d_flags>
0

> <s_epik_input>
W0NIM11bQ0hdKFtDSDNdKWMxW2NIXVtjSF1bY0hdYyhbY0hdMSlbQ0gyXVtOSF1bQ0gyXVtDQEBIXShbT0hdKVtDQEBIXShbTkhdQyg9TyljKFtjSF1jMjMpW2NIXWMoQ2wpbjMpW0NIMl1bQ0BIXShbQ0gzXSlbQ0gyXVtDSDJdW0NIMl1bQ0gyXVtDSDJdW0NIMl1bQ0gyXU8y

> <s_epik_cmdline>
J2VwaWtfcHl0aG9uJywgJy1waCcsICc3LjAnLCAnLXRuJywgJzgnLCAnLW1hJywgJzIwMCcsICctaW1hZScsICc8aW5maWxlLm1hZT4nLCAnLW9tYWUnLCAnPG91dGZpbGUubWFlPic=

> <r_lp_tautomer_probability>
1

> <r_epik_Ionization_Penalty>
0.017333

> <r_epik_Ionization_Penalty_Charging>
0.017325

> <r_epik_Ionization_Penalty_Neutral>
7.99129e-06

> <r_epik_State_Penalty>
0.0137253

> <r_epik_Charging_Adjusted_Penalty>
0.0310503

> <i_epik_Tot_Q>
1

> <i_epik_Tot_abs_Q>
1

> <s_lp_Force_Field>
OPLS_2005

> <r_lp_Energy>
33.0174

> <b_lp_Chiralities_Consistent>
1

> <s_lp_Variant>
BACE_51.smi:1-1

$$$$
BACE_51.smi:1
                    3D
 Structure written by MMmdl.
 78 80  0  0  1  0            999 V2000
    0.1698    4.2013    0.7896 C   0  0  0  0  0  0
   -0.0290    3.2573    1.9853 C   0  0  0  0  0  0
    1.3056    2.9313    2.6769 C   0  0  0  0  0  0
   -0.7752    1.9922    1.5824 C   0  0  0  0  0  0
   -2.0480    1.7146    2.1242 C   0  0  0  0  0  0
   -2.7234    0.5295    1.7758 C   0  0  0  0  0  0
   -2.1276   -0.3896    0.8911 C   0  0  0  0  0  0
   -0.8557   -0.1259    0.3430 C   0  0  0  0  0  0
   -0.2127   -1.1503   -0.5853 C   0  0  0  0  0  0
    1.2502   -1.1725   -0.5324 N   0  0  0  0  0  0
    1.7916   -1.6041    0.7571 C   0  0  0  0  0  0
    3.3234   -1.4210    0.8400 C   0  0  1  0  0  0
    3.5519   -0.0321    0.6793 O   0  0  0  0  0  0
    3.9253   -1.8391    2.2134 C   0  0  2  0  0  0
    5.4642   -2.0369    2.2223 C   0  0  0  0  0  0
    6.3359   -0.7845    1.9557 C   0  0  2  0  0  0
    7.8035   -1.1939    1.7456 C   0  0  0  0  0  0
    6.2224    0.2842    3.0712 C   0  0  0  0  0  0
    6.4578    1.7177    2.5612 C   0  0  0  0  0  0
    6.4285    2.8116    3.6479 C   0  0  0  0  0  0
    5.0360    3.3806    4.0076 C   0  0  0  0  0  0
    4.1596    2.5399    4.9566 C   0  0  0  0  0  0
    4.7660    2.3411    6.3577 C   0  0  0  0  0  0
    3.8778    1.5408    7.3259 C   0  0  0  0  0  0
    3.8803    0.1598    6.9625 O   0  0  0  0  0  0
    2.8801   -0.3435    6.1575 C   0  0  0  0  0  0
    3.1427   -1.5171    5.4274 C   0  0  0  0  0  0
    2.1394   -2.0248    4.5770 C   0  0  0  0  0  0
    0.8926   -1.3692    4.5348 C   0  0  0  0  0  0
    0.7163   -0.2057    5.3106 C   0  0  0  0  0  0
   -0.7988    0.6155    5.2513 Cl  0  0  0  0  0  0
    1.6906    0.3029    6.0962 N   0  0  0  0  0  0
    2.4074   -3.2152    3.7081 C   0  0  0  0  0  0
    1.8169   -4.2731    3.9127 O   0  0  0  0  0  0
    3.3008   -3.0749    2.7076 N   0  0  0  0  0  0
   -0.1952    1.0784    0.6768 C   0  0  0  0  0  0
    3.8066   -1.9697    0.0307 H   0  0  0  0  0  0
    3.6849   -1.0314    2.8970 H   0  0  0  0  0  0
    6.0124   -0.3448    1.0143 H   0  0  0  0  0  0
   -0.7867    4.4658    0.3375 H   0  0  0  0  0  0
    0.7896    3.7465    0.0165 H   0  0  0  0  0  0
    0.6551    5.1276    1.0984 H   0  0  0  0  0  0
   -0.6451    3.7859    2.7139 H   0  0  0  0  0  0
    1.1503    2.3014    3.5529 H   0  0  0  0  0  0
    1.8042    3.8409    3.0124 H   0  0  0  0  0  0
    1.9925    2.4079    2.0111 H   0  0  0  0  0  0
   -2.5086    2.4041    2.8163 H   0  0  0  0  0  0
   -3.6957    0.3204    2.1968 H   0  0  0  0  0  0
   -2.6477   -1.3026    0.6406 H   0  0  0  0  0  0
   -0.6073   -2.1417   -0.3589 H   0  0  0  0  0  0
   -0.5330   -0.9181   -1.6011 H   0  0  0  0  0  0
    1.6195   -1.7516   -1.2795 H   0  0  0  0  0  0
    1.3287   -1.0493    1.5735 H   0  0  0  0  0  0
    1.5264   -2.6504    0.9089 H   0  0  0  0  0  0
    4.4835    0.1237    0.6996 H   0  0  0  0  0  0
    5.7611   -2.4527    3.1866 H   0  0  0  0  0  0
    5.7101   -2.8037    1.4863 H   0  0  0  0  0  0
    8.2162   -1.6641    2.6386 H   0  0  0  0  0  0
    8.4280   -0.3336    1.5052 H   0  0  0  0  0  0
    7.9004   -1.9034    0.9235 H   0  0  0  0  0  0
    5.2428    0.2428    3.5301 H   0  0  0  0  0  0
    6.9200    0.0535    3.8772 H   0  0  0  0  0  0
    7.4375    1.7497    2.0842 H   0  0  0  0  0  0
    5.7400    1.9598    1.7766 H   0  0  0  0  0  0
    6.9729    2.4880    4.5342 H   0  0  0  0  0  0
    7.0086    3.6492    3.2585 H   0  0  0  0  0  0
    5.1798    4.3577    4.4704 H   0  0  0  0  0  0
    4.4816    3.5773    3.0892 H   0  0  0  0  0  0
    3.2016    3.0476    5.0722 H   0  0  0  0  0  0
    3.9182    1.5854    4.4983 H   0  0  0  0  0  0
    5.7315    1.8417    6.2860 H   0  0  0  0  0  0
    4.9621    3.3211    6.7940 H   0  0  0  0  0  0
    4.3189    1.5961    8.3211 H   0  0  0  0  0  0
    2.8901    1.9906    7.4265 H   0  0  0  0  0  0
    4.1103   -1.9941    5.4908 H   0  0  0  0  0  0
    0.0962   -1.7305    3.8999 H   0  0  0  0  0  0
    3.4899   -3.9030    2.1617 H   0  0  0  0  0  0
    0.7769    1.2939    0.2587 H   0  0  0  0  0  0
  1  2  1  0  0  0
  1 40  1  0  0  0
  1 41  1  0  0  0
  1 42  1  0  0  0
  2  3  1  0  0  0
  2  4  1  0  0  0
  2 43  1  0  0  0
  3 44  1  0  0  0
  3 45  1  0  0  0
  3 46  1  0  0  0
  4 36  1  0  0  0
  4  5  2  0  0  0
  5  6  1  0  0  0
  5 47  1  0  0  0
  6  7  2  0  0  0
  6 48  1  0  0  0
  7  8  1  0  0  0
  7 49  1  0  0  0
  8  9  1  0  0  0
  8 36  2  0  0  0
  9 10  1  0  0  0
  9 50  1  0  0  0
  9 51  1  0  0  0
 10 11  1  0  0  0
 10 52  1  0  0  0
 11 12  1  0  0  0
 11 53  1  0  0  0
 11 54  1  0  0  0
 12 37  1  0  0  0
 12 13  1  0  0  0
 12 14  1  0  0  0
 13 55  1  0  0  0
 14 38  1  0  0  0
 14 35  1  0  0  0
 14 15  1  0  0  0
 15 16  1  0  0  0
 15 56  1  0  0  0
 15 57  1  0  0  0
 16 39  1  0  0  0
 16 17  1  0  0  0
 16 18  1  0  0  0
 17 58  1  0  0  0
 17 59  1  0  0  0
 17 60  1  0  0  0
 18 19  1  0  0  0
 18 61  1  0  0  0
 18 62  1  0  0  0
 19 20  1  0  0  0
 19 63  1  0  0  0
 19 64  1  0  0  0
 20 21  1  0  0  0
 20 65  1  0  0  0
 20 66  1  0  0  0
 21 22  1  0  0  0
 21 67  1  0  0  0
 21 68  1  0  0  0
 22 23  1  0  0  0
 22 69  1  0  0  0
 22 70  1  0  0  0
 23 24  1  0  0  0
 23 71  1  0  0  0
 23 72  1  0  0  0
 24 25  1  0  0  0
 24 73  1  0  0  0
 24 74  1  0  0  0
 25 26  1  0  0  0
 26 32  1  0  0  0
 26 27  2  0  0  0
 27 28  1  0  0  0
 27 75  1  0  0  0
 28 29  2  0  0  0
 28 33  1  0  0  0
 29 30  1  0  0  0
 29 76  1  0  0  0
 30 31  1  0  0  0
 30 32  2  0  0  0
 33 34  2  0  0  0
 33 35  1  0  0  0
 35 77  1  0  0  0
 36 78  1  0  0  0
M  END
> <s_m_source_file>
BACE_51.smi

> <i_m_source_file_index>
1

> <i_lp_mmshare_version>
42013

> <i_f3d_flags>
0

> <s_epik_input>
W0NIM11bQ0hdKFtDSDNdKWMxW2NIXVtjSF1bY0hdYyhbY0hdMSlbQ0gyXVtOSF1bQ0gyXVtDQEBIXShbT0hdKVtDQEBIXShbTkhdQyg9TyljKFtjSF1jMjMpW2NIXWMoQ2wpbjMpW0NIMl1bQ0BIXShbQ0gzXSlbQ0gyXVtDSDJdW0NIMl1bQ0gyXVtDSDJdW0NIMl1bQ0gyXU8y

> <s_epik_cmdline>
J2VwaWtfcHl0aG9uJywgJy1waCcsICc3LjAnLCAnLXRuJywgJzgnLCAnLW1hJywgJzIwMCcsICctaW1hZScsICc8aW5maWxlLm1hZT4nLCAnLW9tYWUnLCAnPG91dGZpbGUubWFlPic=

> <r_lp_tautomer_probability>
1

> <r_epik_Ionization_Penalty>
2.10141

> <r_epik_Ionization_Penalty_Charging>
0

> <r_epik_Ionization_Penalty_Neutral>
2.10141

> <r_epik_State_Penalty>
2.23761

> <r_epik_Charging_Adjusted_Penalty>
2.23761

> <i_epik_Tot_Q>
0

> <i_epik_Tot_abs_Q>
0

> <s_lp_Force_Field>
OPLS_2005

> <r_lp_Energy>
35.3519

> <b_lp_Chiralities_Consistent>
1

> <s_lp_Variant>
BACE_51.smi:1-2

$$$$
