BACE_72.smi:1
                    3D
 Structure written by MMmdl.
 80 82  0  0  1  0            999 V2000
   -0.4788    6.8246    3.1815 C   0  0  0  0  0  0
   -0.8289    6.0781    1.8920 C   0  0  0  0  0  0
   -0.4978    4.7060    2.0575 O   0  0  0  0  0  0
   -0.7207    3.8481    1.0021 C   0  0  0  0  0  0
   -0.3587    2.5004    1.1862 C   0  0  0  0  0  0
   -0.5431    1.5409    0.1678 C   0  0  0  0  0  0
   -0.1186    0.1089    0.4541 C   0  0  0  0  0  0
    1.2940   -0.0980    0.0825 N   0  3  0  0  0  0
    1.8085   -1.4465    0.3901 C   0  0  0  0  0  0
    3.2896   -1.5812   -0.0195 C   0  0  1  0  0  0
    4.0678   -0.7219    0.7879 O   0  0  0  0  0  0
    3.8703   -3.0221    0.0421 C   0  0  2  0  0  0
    3.4442   -3.8229   -1.2168 C   0  0  0  0  0  0
    4.1523   -5.1698   -1.5170 C   0  0  2  0  0  0
    3.6895   -6.3218   -0.6095 C   0  0  0  0  0  0
    5.6948   -5.1017   -1.6015 C   0  0  0  0  0  0
    6.2439   -4.1457   -2.6797 C   0  0  0  0  0  0
    6.2886   -2.8020   -2.2168 O   0  0  0  0  0  0
    7.5081   -2.4707   -1.5661 C   0  0  0  0  0  0
    7.3740   -1.0875   -0.9143 C   0  0  0  0  0  0
    8.6683   -0.5642   -0.2606 C   0  0  0  0  0  0
    9.2538   -1.4543    0.8521 C   0  0  0  0  0  0
    8.3371   -1.6162    1.9752 N   0  0  0  0  0  0
    7.7159   -2.8664    2.0893 C   0  0  0  0  0  0
    6.3125   -2.9183    2.2000 C   0  0  0  0  0  0
    5.6379   -4.1581    2.2282 C   0  0  0  0  0  0
    6.3881   -5.3531    2.2387 C   0  0  0  0  0  0
    7.7929   -5.3084    2.1631 C   0  0  0  0  0  0
    8.4558   -4.0698    2.0772 C   0  0  0  0  0  0
    4.1394   -4.2240    2.2797 C   0  0  0  0  0  0
    3.5895   -4.8029    3.2138 O   0  0  0  0  0  0
    3.4220   -3.6976    1.2664 N   0  0  0  0  0  0
   -1.1029    1.9344   -1.0772 C   0  0  0  0  0  0
   -1.4711    3.2868   -1.2594 C   0  0  0  0  0  0
   -1.2839    4.2348   -0.2365 C   0  0  0  0  0  0
   -1.3207    0.9354   -2.2140 C   0  0  0  0  0  0
   -1.7106    1.5408   -3.3360 F   0  0  0  0  0  0
   -0.1924    0.2778   -2.4823 F   0  0  0  0  0  0
   -2.2647    0.0596   -1.8708 F   0  0  0  0  0  0
    3.4070   -1.2062   -1.0372 H   0  0  0  0  0  0
    4.9527   -2.9427    0.0038 H   0  0  0  0  0  0
    3.8095   -5.4508   -2.5140 H   0  0  0  0  0  0
   -0.7111    7.8860    3.0929 H   0  0  0  0  0  0
    0.5830    6.7326    3.4111 H   0  0  0  0  0  0
   -1.0407    6.4287    4.0280 H   0  0  0  0  0  0
   -1.8938    6.1909    1.6827 H   0  0  0  0  0  0
   -0.2693    6.5067    1.0593 H   0  0  0  0  0  0
    0.0715    2.2009    2.1310 H   0  0  0  0  0  0
   -0.2433   -0.0964    1.5185 H   0  0  0  0  0  0
   -0.7519   -0.6056   -0.0694 H   0  0  0  0  0  0
    1.3937    0.0680   -0.9088 H   0  0  0  0  0  0
    1.6804   -1.6454    1.4551 H   0  0  0  0  0  0
    1.2020   -2.1749   -0.1489 H   0  0  0  0  0  0
    4.9675   -0.7726    0.5009 H   0  0  0  0  0  0
    2.3671   -3.9913   -1.1899 H   0  0  0  0  0  0
    3.6014   -3.1894   -2.0903 H   0  0  0  0  0  0
    4.1133   -6.2533    0.3895 H   0  0  0  0  0  0
    4.0007   -7.2831   -1.0191 H   0  0  0  0  0  0
    2.6035   -6.3447   -0.5162 H   0  0  0  0  0  0
    6.1269   -4.8728   -0.6286 H   0  0  0  0  0  0
    6.0541   -6.1025   -1.8437 H   0  0  0  0  0  0
    7.2340   -4.4676   -3.0072 H   0  0  0  0  0  0
    5.6098   -4.1875   -3.5656 H   0  0  0  0  0  0
    7.7466   -3.2186   -0.8103 H   0  0  0  0  0  0
    8.3214   -2.4692   -2.2930 H   0  0  0  0  0  0
    7.0544   -0.3711   -1.6716 H   0  0  0  0  0  0
    6.5766   -1.1129   -0.1740 H   0  0  0  0  0  0
    9.4246   -0.4327   -1.0349 H   0  0  0  0  0  0
    8.4814    0.4320    0.1422 H   0  0  0  0  0  0
    9.5594   -2.4115    0.4302 H   0  0  0  0  0  0
   10.1649   -0.9940    1.2348 H   0  0  0  0  0  0
    7.7276   -0.8252    2.1258 H   0  0  0  0  0  0
    5.7499   -1.9985    2.2306 H   0  0  0  0  0  0
    5.8891   -6.3104    2.2860 H   0  0  0  0  0  0
    8.3622   -6.2261    2.1607 H   0  0  0  0  0  0
    9.5337   -4.0511    2.0098 H   0  0  0  0  0  0
    2.4213   -3.7993    1.3522 H   0  0  0  0  0  0
   -1.9049    3.6177   -2.1912 H   0  0  0  0  0  0
   -1.5817    5.2545   -0.4282 H   0  0  0  0  0  0
    1.8596    0.5749    0.5805 H   0  0  0  0  0  0
  1  2  1  0  0  0
  1 43  1  0  0  0
  1 44  1  0  0  0
  1 45  1  0  0  0
  2  3  1  0  0  0
  2 46  1  0  0  0
  2 47  1  0  0  0
  3  4  1  0  0  0
  4 35  1  0  0  0
  4  5  2  0  0  0
  5  6  1  0  0  0
  5 48  1  0  0  0
  6  7  1  0  0  0
  6 33  2  0  0  0
  7  8  1  0  0  0
  7 49  1  0  0  0
  7 50  1  0  0  0
  8  9  1  0  0  0
  8 51  1  0  0  0
  8 80  1  0  0  0
  9 10  1  0  0  0
  9 52  1  0  0  0
  9 53  1  0  0  0
 10 40  1  0  0  0
 10 11  1  0  0  0
 10 12  1  0  0  0
 11 54  1  0  0  0
 12 41  1  0  0  0
 12 32  1  0  0  0
 12 13  1  0  0  0
 13 14  1  0  0  0
 13 55  1  0  0  0
 13 56  1  0  0  0
 14 42  1  0  0  0
 14 15  1  0  0  0
 14 16  1  0  0  0
 15 57  1  0  0  0
 15 58  1  0  0  0
 15 59  1  0  0  0
 16 17  1  0  0  0
 16 60  1  0  0  0
 16 61  1  0  0  0
 17 18  1  0  0  0
 17 62  1  0  0  0
 17 63  1  0  0  0
 18 19  1  0  0  0
 19 20  1  0  0  0
 19 64  1  0  0  0
 19 65  1  0  0  0
 20 21  1  0  0  0
 20 66  1  0  0  0
 20 67  1  0  0  0
 21 22  1  0  0  0
 21 68  1  0  0  0
 21 69  1  0  0  0
 22 23  1  0  0  0
 22 70  1  0  0  0
 22 71  1  0  0  0
 23 24  1  0  0  0
 23 72  1  0  0  0
 24 29  1  0  0  0
 24 25  2  0  0  0
 25 26  1  0  0  0
 25 73  1  0  0  0
 26 27  2  0  0  0
 26 30  1  0  0  0
 27 28  1  0  0  0
 27 74  1  0  0  0
 28 29  2  0  0  0
 28 75  1  0  0  0
 29 76  1  0  0  0
 30 31  2  0  0  0
 30 32  1  0  0  0
 32 77  1  0  0  0
 33 34  1  0  0  0
 33 36  1  0  0  0
 34 35  2  0  0  0
 34 78  1  0  0  0
 35 79  1  0  0  0
 36 37  1  0  0  0
 36 38  1  0  0  0
 36 39  1  0  0  0
M  CHG  1   8   1
M  END
> <s_m_source_file>
BACE_72.smi

> <i_m_source_file_index>
1

> <i_lp_mmshare_version>
42013

> <i_f3d_flags>
0

> <s_epik_input>
W0NIM11bQ0gyXU9jMVtjSF1jKGMoQyhGKShGKUYpW2NIXVtjSF0xKVtDSDJdW05IXVtDSDJdW0NAQEhdKFtPSF0pW0NAQEhdKFtOSF1DKD1PKWMoW2NIXWMyMylbY0hdW2NIXVtjSF0zKVtDSDJdW0NASF0oW0NIM10pW0NIMl1bQ0gyXU9bQ0gyXVtDSDJdW0NIMl1bQ0gyXVtOSF0y

> <s_epik_cmdline>
J2VwaWtfcHl0aG9uJywgJy1waCcsICc3LjAnLCAnLXRuJywgJzgnLCAnLW1hJywgJzIwMCcsICctaW1hZScsICc8aW5maWxlLm1hZT4nLCAnLW9tYWUnLCAnPG91dGZpbGUubWFlPic=

> <r_lp_tautomer_probability>
1

> <r_epik_Ionization_Penalty>
0.0285207

> <r_epik_Ionization_Penalty_Charging>
0.0279916

> <r_epik_Ionization_Penalty_Neutral>
0.000529155

> <r_epik_State_Penalty>
0.0229434

> <r_epik_Charging_Adjusted_Penalty>
0.0509349

> <i_epik_Tot_Q>
1

> <i_epik_Tot_abs_Q>
1

> <s_lp_Force_Field>
OPLS_2005

> <r_lp_Energy>
40.8093

> <b_lp_Chiralities_Consistent>
1

> <s_lp_Variant>
BACE_72.smi:1-1

$$$$
BACE_72.smi:1
                    3D
 Structure written by MMmdl.
 79 81  0  0  1  0            999 V2000
    1.3032    6.9021   -2.5130 C   0  0  0  0  0  0
    0.1983    6.1976   -1.7226 C   0  0  0  0  0  0
    0.5572    4.8328   -1.5555 O   0  0  0  0  0  0
   -0.2987    4.0148   -0.8491 C   0  0  0  0  0  0
    0.0949    2.6744   -0.6751 C   0  0  0  0  0  0
   -0.7024    1.7527    0.0437 C   0  0  0  0  0  0
   -0.2244    0.3107    0.2052 C   0  0  0  0  0  0
    1.2289    0.1693    0.2728 N   0  0  0  0  0  0
    1.6666   -1.2136    0.4360 C   0  0  0  0  0  0
    3.2074   -1.3123    0.4634 C   0  0  1  0  0  0
    3.6087   -0.8999    1.7560 O   0  0  0  0  0  0
    3.7831   -2.7324    0.1965 C   0  0  2  0  0  0
    5.3337   -2.6879    0.1082 C   0  0  0  0  0  0
    6.1220   -4.0237    0.1049 C   0  0  2  0  0  0
    6.0701   -4.7670   -1.2406 C   0  0  0  0  0  0
    5.8200   -4.9719    1.2882 C   0  0  0  0  0  0
    6.1194   -4.3849    2.6824 C   0  0  0  0  0  0
    5.0486   -3.5793    3.1557 O   0  0  0  0  0  0
    4.0650   -4.3098    3.8753 C   0  0  0  0  0  0
    2.8528   -3.4052    4.1391 C   0  0  0  0  0  0
    1.7635   -4.0455    5.0222 C   0  0  0  0  0  0
    1.1604   -5.3574    4.4844 C   0  0  0  0  0  0
    0.5056   -5.1808    3.1930 N   0  0  0  0  0  0
    1.1857   -5.6993    2.0839 C   0  0  0  0  0  0
    1.4356   -4.8527    0.9864 C   0  0  0  0  0  0
    2.1895   -5.3063   -0.1177 C   0  0  0  0  0  0
    2.6180   -6.6502   -0.1547 C   0  0  0  0  0  0
    2.3456   -7.5118    0.9246 C   0  0  0  0  0  0
    1.6408   -7.0361    2.0463 C   0  0  0  0  0  0
    2.5068   -4.3956   -1.2683 C   0  0  0  0  0  0
    2.1623   -4.7146   -2.4040 O   0  0  0  0  0  0
    3.2134   -3.2683   -1.0458 N   0  0  0  0  0  0
   -1.9499    2.1801    0.5741 C   0  0  0  0  0  0
   -2.3427    3.5268    0.4019 C   0  0  0  0  0  0
   -1.5298    4.4370   -0.2968 C   0  0  0  0  0  0
   -2.8749    1.2227    1.3262 C   0  0  0  0  0  0
   -4.0594    1.7795    1.5823 F   0  0  0  0  0  0
   -3.0965    0.1226    0.6061 F   0  0  0  0  0  0
   -2.3235    0.8819    2.4909 F   0  0  0  0  0  0
    3.6268   -0.6234   -0.2716 H   0  0  0  0  0  0
    3.5184   -3.3583    1.0430 H   0  0  0  0  0  0
    7.1672   -3.7311    0.2139 H   0  0  0  0  0  0
    1.0619    7.9543   -2.6654 H   0  0  0  0  0  0
    1.4367    6.4437   -3.4932 H   0  0  0  0  0  0
    2.2559    6.8504   -1.9853 H   0  0  0  0  0  0
    0.0800    6.6814   -0.7519 H   0  0  0  0  0  0
   -0.7460    6.2794   -2.2630 H   0  0  0  0  0  0
    1.0333    2.3586   -1.1069 H   0  0  0  0  0  0
   -0.6566   -0.1220    1.1054 H   0  0  0  0  0  0
   -0.6146   -0.2662   -0.6341 H   0  0  0  0  0  0
    1.5846    0.7250    1.0441 H   0  0  0  0  0  0
    1.2452   -1.6404    1.3468 H   0  0  0  0  0  0
    1.2631   -1.7961   -0.3917 H   0  0  0  0  0  0
    3.3223   -0.0095    1.8887 H   0  0  0  0  0  0
    5.6223   -2.1054   -0.7677 H   0  0  0  0  0  0
    5.7117   -2.1122    0.9529 H   0  0  0  0  0  0
    5.1205   -5.2738   -1.3945 H   0  0  0  0  0  0
    6.8462   -5.5312   -1.2883 H   0  0  0  0  0  0
    6.2320   -4.0877   -2.0779 H   0  0  0  0  0  0
    4.7974   -5.3416    1.2373 H   0  0  0  0  0  0
    6.4485   -5.8550    1.1686 H   0  0  0  0  0  0
    6.3360   -5.1832    3.3945 H   0  0  0  0  0  0
    7.0206   -3.7730    2.6376 H   0  0  0  0  0  0
    3.7590   -5.1891    3.3091 H   0  0  0  0  0  0
    4.4889   -4.6591    4.8178 H   0  0  0  0  0  0
    3.1964   -2.4906    4.6233 H   0  0  0  0  0  0
    2.4189   -3.0922    3.1901 H   0  0  0  0  0  0
    2.1815   -4.2359    6.0111 H   0  0  0  0  0  0
    0.9628   -3.3207    5.1736 H   0  0  0  0  0  0
    1.9315   -6.1267    4.4510 H   0  0  0  0  0  0
    0.4095   -5.7194    5.1871 H   0  0  0  0  0  0
    0.1215   -4.2571    3.0543 H   0  0  0  0  0  0
    1.0745   -3.8369    1.0101 H   0  0  0  0  0  0
    3.1730   -7.0215   -1.0042 H   0  0  0  0  0  0
    2.6861   -8.5362    0.8958 H   0  0  0  0  0  0
    1.4467   -7.7052    2.8718 H   0  0  0  0  0  0
    3.4001   -2.7094   -1.8657 H   0  0  0  0  0  0
   -3.2798    3.8811    0.8043 H   0  0  0  0  0  0
   -1.8779    5.4534   -0.4000 H   0  0  0  0  0  0
  1  2  1  0  0  0
  1 43  1  0  0  0
  1 44  1  0  0  0
  1 45  1  0  0  0
  2  3  1  0  0  0
  2 46  1  0  0  0
  2 47  1  0  0  0
  3  4  1  0  0  0
  4 35  1  0  0  0
  4  5  2  0  0  0
  5  6  1  0  0  0
  5 48  1  0  0  0
  6  7  1  0  0  0
  6 33  2  0  0  0
  7  8  1  0  0  0
  7 49  1  0  0  0
  7 50  1  0  0  0
  8  9  1  0  0  0
  8 51  1  0  0  0
  9 10  1  0  0  0
  9 52  1  0  0  0
  9 53  1  0  0  0
 10 40  1  0  0  0
 10 11  1  0  0  0
 10 12  1  0  0  0
 11 54  1  0  0  0
 12 41  1  0  0  0
 12 32  1  0  0  0
 12 13  1  0  0  0
 13 14  1  0  0  0
 13 55  1  0  0  0
 13 56  1  0  0  0
 14 42  1  0  0  0
 14 15  1  0  0  0
 14 16  1  0  0  0
 15 57  1  0  0  0
 15 58  1  0  0  0
 15 59  1  0  0  0
 16 17  1  0  0  0
 16 60  1  0  0  0
 16 61  1  0  0  0
 17 18  1  0  0  0
 17 62  1  0  0  0
 17 63  1  0  0  0
 18 19  1  0  0  0
 19 20  1  0  0  0
 19 64  1  0  0  0
 19 65  1  0  0  0
 20 21  1  0  0  0
 20 66  1  0  0  0
 20 67  1  0  0  0
 21 22  1  0  0  0
 21 68  1  0  0  0
 21 69  1  0  0  0
 22 23  1  0  0  0
 22 70  1  0  0  0
 22 71  1  0  0  0
 23 24  1  0  0  0
 23 72  1  0  0  0
 24 29  1  0  0  0
 24 25  2  0  0  0
 25 26  1  0  0  0
 25 73  1  0  0  0
 26 27  2  0  0  0
 26 30  1  0  0  0
 27 28  1  0  0  0
 27 74  1  0  0  0
 28 29  2  0  0  0
 28 75  1  0  0  0
 29 76  1  0  0  0
 30 31  2  0  0  0
 30 32  1  0  0  0
 32 77  1  0  0  0
 33 34  1  0  0  0
 33 36  1  0  0  0
 34 35  2  0  0  0
 34 78  1  0  0  0
 35 79  1  0  0  0
 36 37  1  0  0  0
 36 38  1  0  0  0
 36 39  1  0  0  0
M  END
> <s_m_source_file>
BACE_72.smi

> <i_m_source_file_index>
1

> <i_lp_mmshare_version>
42013

> <i_f3d_flags>
0

> <s_epik_input>
W0NIM11bQ0gyXU9jMVtjSF1jKGMoQyhGKShGKUYpW2NIXVtjSF0xKVtDSDJdW05IXVtDSDJdW0NAQEhdKFtPSF0pW0NAQEhdKFtOSF1DKD1PKWMoW2NIXWMyMylbY0hdW2NIXVtjSF0zKVtDSDJdW0NASF0oW0NIM10pW0NIMl1bQ0gyXU9bQ0gyXVtDSDJdW0NIMl1bQ0gyXVtOSF0y

> <s_epik_cmdline>
J2VwaWtfcHl0aG9uJywgJy1waCcsICc3LjAnLCAnLXRuJywgJzgnLCAnLW1hJywgJzIwMCcsICctaW1hZScsICc8aW5maWxlLm1hZT4nLCAnLW9tYWUnLCAnPG91dGZpbGUubWFlPic=

> <r_lp_tautomer_probability>
1

> <r_epik_Ionization_Penalty>
1.82305

> <r_epik_Ionization_Penalty_Charging>
0

> <r_epik_Ionization_Penalty_Neutral>
1.82305

> <r_epik_State_Penalty>
1.93778

> <r_epik_Charging_Adjusted_Penalty>
1.93778

> <i_epik_Tot_Q>
0

> <i_epik_Tot_abs_Q>
0

> <s_lp_Force_Field>
OPLS_2005

> <r_lp_Energy>
49.0297

> <b_lp_Chiralities_Consistent>
1

> <s_lp_Variant>
BACE_72.smi:1-2

$$$$
