BACE_141.smi:1
                    3D
 Structure written by MMmdl.
 81 84  0  0  1  0            999 V2000
   -3.4223   -2.6524   -3.2012 C   0  0  0  0  0  0
   -4.2968   -1.4232   -2.9303 C   0  0  0  0  0  0
   -3.4773   -0.1591   -2.7615 C   0  0  0  0  0  0
   -3.1219    0.3200   -1.4832 C   0  0  0  0  0  0
   -2.3318    1.4891   -1.4541 C   0  0  0  0  0  0
   -1.8158    2.0615   -0.1461 C   0  0  0  0  0  0
   -0.3902    1.7305    0.0665 N   0  3  0  0  0  0
   -0.1125    0.2888    0.2431 C   0  0  0  0  0  0
    1.3980    0.0037    0.3587 C   0  0  1  0  0  0
    1.8401    0.5298    1.5951 O   0  0  0  0  0  0
    1.7513   -1.5045    0.3098 C   0  0  2  0  0  0
    3.2788   -1.7718    0.4004 C   0  0  0  0  0  0
    3.6910   -3.1320   -0.1490 C   0  0  0  0  0  0
    4.3422   -3.2276   -1.3976 C   0  0  0  0  0  0
    4.6108   -4.4819   -1.9832 C   0  0  0  0  0  0
    4.2409   -5.6555   -1.2788 C   0  0  0  0  0  0
    3.6197   -5.5646   -0.0183 C   0  0  0  0  0  0
    3.3437   -4.3067    0.5469 C   0  0  0  0  0  0
    5.2272   -4.4736   -3.2180 O   0  0  0  0  0  0
    5.1029   -5.6121   -4.0672 C   0  0  0  0  0  0
    3.7116   -5.6571   -4.7253 C   0  0  0  0  0  0
    3.5348   -4.5632   -5.7955 C   0  0  0  0  0  0
    2.1400   -4.5110   -6.4495 C   0  0  0  0  0  0
    1.2500   -3.6734   -5.7156 O   0  0  0  0  0  0
    0.6847   -4.1821   -4.5714 C   0  0  0  0  0  0
    0.1514   -5.4884   -4.4880 C   0  0  0  0  0  0
   -0.4117   -5.9550   -3.2821 C   0  0  0  0  0  0
   -0.4061   -5.1192   -2.1440 C   0  0  0  0  0  0
    0.1266   -3.8145   -2.2124 C   0  0  0  0  0  0
    0.6377   -3.3435   -3.4421 C   0  0  0  0  0  0
    0.1667   -2.9586   -0.9802 C   0  0  0  0  0  0
   -0.6589   -3.0964   -0.0773 O   0  0  0  0  0  0
    1.2246   -2.1344   -0.9049 N   0  0  0  0  0  0
   -0.9331   -7.3622   -3.2014 C   0  0  0  0  0  0
   -0.1911   -8.2869   -3.5354 O   0  0  0  0  0  0
   -2.2002   -7.5575   -2.7619 N   0  0  0  0  0  0
   -2.7100   -8.9110   -2.5355 C   0  0  0  0  0  0
   -3.1894   -6.4885   -2.5984 C   0  0  0  0  0  0
   -1.9423    2.1141   -2.5873 N   0  0  0  0  0  0
   -2.3453    1.5740   -3.7412 C   0  0  0  0  0  0
   -3.0829    0.4709   -3.8906 N   0  0  0  0  0  0
    1.9235    0.5207   -0.4458 H   0  0  0  0  0  0
    1.2918   -1.9979    1.1688 H   0  0  0  0  0  0
   -4.0407   -3.5405   -3.3282 H   0  0  0  0  0  0
   -2.7378   -2.8385   -2.3736 H   0  0  0  0  0  0
   -2.8283   -2.5280   -4.1072 H   0  0  0  0  0  0
   -5.0027   -1.2842   -3.7502 H   0  0  0  0  0  0
   -4.8957   -1.5871   -2.0338 H   0  0  0  0  0  0
   -3.4192   -0.1936   -0.5803 H   0  0  0  0  0  0
   -1.9274    3.1462   -0.1603 H   0  0  0  0  0  0
   -2.4108    1.6929    0.6906 H   0  0  0  0  0  0
    0.1296    2.0616   -0.7337 H   0  0  0  0  0  0
   -0.6503   -0.0948    1.1114 H   0  0  0  0  0  0
   -0.5104   -0.2278   -0.6277 H   0  0  0  0  0  0
    1.4512    0.0271    2.2952 H   0  0  0  0  0  0
    3.8174   -1.0044   -0.1571 H   0  0  0  0  0  0
    3.6179   -1.6837    1.4331 H   0  0  0  0  0  0
    4.6035   -2.3293   -1.9376 H   0  0  0  0  0  0
    4.4267   -6.6412   -1.6739 H   0  0  0  0  0  0
    3.3420   -6.4643    0.5108 H   0  0  0  0  0  0
    2.8378   -4.2449    1.4993 H   0  0  0  0  0  0
    5.8641   -5.5285   -4.8433 H   0  0  0  0  0  0
    5.3349   -6.5428   -3.5528 H   0  0  0  0  0  0
    3.5721   -6.6309   -5.1955 H   0  0  0  0  0  0
    2.9438   -5.5810   -3.9575 H   0  0  0  0  0  0
    3.7754   -3.5836   -5.3808 H   0  0  0  0  0  0
    4.2715   -4.7429   -6.5792 H   0  0  0  0  0  0
    2.2416   -4.0446   -7.4298 H   0  0  0  0  0  0
    1.7486   -5.5080   -6.6470 H   0  0  0  0  0  0
    0.1562   -6.1393   -5.3492 H   0  0  0  0  0  0
   -0.7908   -5.4932   -1.2057 H   0  0  0  0  0  0
    1.0425   -2.3450   -3.5231 H   0  0  0  0  0  0
    1.8306   -2.1034   -1.7124 H   0  0  0  0  0  0
   -1.9605   -9.5495   -2.0652 H   0  0  0  0  0  0
   -3.0031   -9.3677   -3.4814 H   0  0  0  0  0  0
   -3.5796   -8.9094   -1.8770 H   0  0  0  0  0  0
   -3.0871   -5.7274   -3.3726 H   0  0  0  0  0  0
   -3.0850   -6.0113   -1.6239 H   0  0  0  0  0  0
   -4.2087   -6.8691   -2.6722 H   0  0  0  0  0  0
   -2.0333    2.0747   -4.6455 H   0  0  0  0  0  0
   -0.0637    2.2185    0.8884 H   0  0  0  0  0  0
  1  2  1  0  0  0
  1 44  1  0  0  0
  1 45  1  0  0  0
  1 46  1  0  0  0
  2  3  1  0  0  0
  2 47  1  0  0  0
  2 48  1  0  0  0
  3 41  1  0  0  0
  3  4  2  0  0  0
  4  5  1  0  0  0
  4 49  1  0  0  0
  5  6  1  0  0  0
  5 39  2  0  0  0
  6  7  1  0  0  0
  6 50  1  0  0  0
  6 51  1  0  0  0
  7  8  1  0  0  0
  7 52  1  0  0  0
  7 81  1  0  0  0
  8  9  1  0  0  0
  8 53  1  0  0  0
  8 54  1  0  0  0
  9 42  1  0  0  0
  9 10  1  0  0  0
  9 11  1  0  0  0
 10 55  1  0  0  0
 11 43  1  0  0  0
 11 33  1  0  0  0
 11 12  1  0  0  0
 12 13  1  0  0  0
 12 56  1  0  0  0
 12 57  1  0  0  0
 13 18  1  0  0  0
 13 14  2  0  0  0
 14 15  1  0  0  0
 14 58  1  0  0  0
 15 16  2  0  0  0
 15 19  1  0  0  0
 16 17  1  0  0  0
 16 59  1  0  0  0
 17 18  2  0  0  0
 17 60  1  0  0  0
 18 61  1  0  0  0
 19 20  1  0  0  0
 20 21  1  0  0  0
 20 62  1  0  0  0
 20 63  1  0  0  0
 21 22  1  0  0  0
 21 64  1  0  0  0
 21 65  1  0  0  0
 22 23  1  0  0  0
 22 66  1  0  0  0
 22 67  1  0  0  0
 23 24  1  0  0  0
 23 68  1  0  0  0
 23 69  1  0  0  0
 24 25  1  0  0  0
 25 30  1  0  0  0
 25 26  2  0  0  0
 26 27  1  0  0  0
 26 70  1  0  0  0
 27 28  2  0  0  0
 27 34  1  0  0  0
 28 29  1  0  0  0
 28 71  1  0  0  0
 29 30  2  0  0  0
 29 31  1  0  0  0
 30 72  1  0  0  0
 31 32  2  0  0  0
 31 33  1  0  0  0
 33 73  1  0  0  0
 34 35  2  0  0  0
 34 36  1  0  0  0
 36 37  1  0  0  0
 36 38  1  0  0  0
 37 74  1  0  0  0
 37 75  1  0  0  0
 37 76  1  0  0  0
 38 77  1  0  0  0
 38 78  1  0  0  0
 38 79  1  0  0  0
 39 40  1  0  0  0
 40 41  2  0  0  0
 40 80  1  0  0  0
M  CHG  1   7   1
M  END
> <s_m_source_file>
BACE_141.smi

> <i_m_source_file_index>
1

> <i_lp_mmshare_version>
42013

> <i_f3d_flags>
0

> <s_epik_input>
W0NIM11bQ0gyXWMxW2NIXWMobltjSF1uMSlbQ0gyXVtOSF1bQ0gyXVtDQEBIXShbT0hdKVtDQEhdKFtDSDJdMilbTkhdQyg9TyljKFtjSF0zKVtjSF1jKEMoPU8pTihbQ0gzXSlbQ0gzXSlbY0hdYzNPW0NIMl1bQ0gyXVtDSDJdW0NIMl1PYyhbY0hdYzI0KVtjSF1bY0hdW2NIXTQ=

> <s_epik_cmdline>
J2VwaWtfcHl0aG9uJywgJy1waCcsICc3LjAnLCAnLXRuJywgJzgnLCAnLW1hJywgJzIwMCcsICctaW1hZScsICc8aW5maWxlLm1hZT4nLCAnLW9tYWUnLCAnPG91dGZpbGUubWFlPic=

> <r_lp_tautomer_probability>
1

> <r_epik_Ionization_Penalty>
0.103411

> <r_epik_Ionization_Penalty_Charging>
0.103407

> <r_epik_Ionization_Penalty_Neutral>
3.73888e-06

> <r_epik_State_Penalty>
0.0933395

> <r_epik_Charging_Adjusted_Penalty>
0.196746

> <i_epik_Tot_Q>
1

> <i_epik_Tot_abs_Q>
1

> <s_epik_Chemistry_Notes>
This compound contains an electron-poor aromatic ring that is susceptible to covalent hydrolysis at low pH, typically resulting in measured values for nitrogen ring protonation that are around two units higher than predicted values.

> <s_lp_Force_Field>
OPLS_2005

> <r_lp_Energy>
28.7943

> <b_lp_Chiralities_Consistent>
1

> <s_lp_Variant>
BACE_141.smi:1-1

$$$$
BACE_141.smi:1
                    3D
 Structure written by MMmdl.
 80 83  0  0  1  0            999 V2000
   -6.3943    5.3787   -0.5412 C   0  0  0  0  0  0
   -4.9695    5.4094   -1.1067 C   0  0  0  0  0  0
   -3.9708    4.7362   -0.1851 C   0  0  0  0  0  0
   -3.5433    3.4103   -0.4091 C   0  0  0  0  0  0
   -2.6274    2.8853    0.5266 C   0  0  0  0  0  0
   -2.1038    1.4681    0.4062 C   0  0  0  0  0  0
   -0.6609    1.4258    0.1919 N   0  0  0  0  0  0
   -0.1369    0.0675    0.0889 C   0  0  0  0  0  0
    1.3975    0.0567   -0.0383 C   0  0  1  0  0  0
    1.8202   -1.2888    0.0662 O   0  0  0  0  0  0
    1.9249    0.6708   -1.3640 C   0  0  2  0  0  0
    1.4370   -0.0631   -2.6452 C   0  0  0  0  0  0
    2.2609    0.2439   -3.8887 C   0  0  0  0  0  0
    3.4481   -0.4756   -4.1429 C   0  0  0  0  0  0
    4.2829   -0.1419   -5.2268 C   0  0  0  0  0  0
    3.8749    0.8888   -6.1099 C   0  0  0  0  0  0
    2.6725    1.5864   -5.8814 C   0  0  0  0  0  0
    1.8714    1.2744   -4.7668 C   0  0  0  0  0  0
    5.4671   -0.8380   -5.3356 O   0  0  0  0  0  0
    6.4310   -0.3742   -6.2703 C   0  0  0  0  0  0
    7.7654   -1.0956   -6.0284 C   0  0  0  0  0  0
    8.4322   -0.7980   -4.6694 C   0  0  0  0  0  0
    8.8243    0.6775   -4.4627 C   0  0  0  0  0  0
    7.7088    1.4404   -4.0075 O   0  0  0  0  0  0
    7.3906    1.4285   -2.6653 C   0  0  0  0  0  0
    8.3446    1.3527   -1.6212 C   0  0  0  0  0  0
    7.9407    1.4121   -0.2674 C   0  0  0  0  0  0
    6.5679    1.4974    0.0455 C   0  0  0  0  0  0
    5.6048    1.5481   -0.9818 C   0  0  0  0  0  0
    6.0276    1.5413   -2.3298 C   0  0  0  0  0  0
    4.1463    1.6212   -0.6458 C   0  0  0  0  0  0
    3.7233    2.3740    0.2309 O   0  0  0  0  0  0
    3.3841    0.7772   -1.3552 N   0  0  0  0  0  0
    8.9482    1.3176    0.8452 C   0  0  0  0  0  0
    8.7906    0.4557    1.7110 O   0  0  0  0  0  0
    9.9883    2.1873    0.8572 N   0  0  0  0  0  0
   10.1006    3.3665   -0.0070 C   0  0  0  0  0  0
   11.0546    2.0541    1.8519 C   0  0  0  0  0  0
   -2.1866    3.6139    1.5776 N   0  0  0  0  0  0
   -2.6580    4.8587    1.6868 C   0  0  0  0  0  0
   -3.5255    5.4591    0.8673 N   0  0  0  0  0  0
    1.8143    0.5923    0.8153 H   0  0  0  0  0  0
    1.5641    1.6984   -1.4356 H   0  0  0  0  0  0
   -7.0921    5.8706   -1.2190 H   0  0  0  0  0  0
   -6.4480    5.8896    0.4207 H   0  0  0  0  0  0
   -6.7372    4.3540   -0.3960 H   0  0  0  0  0  0
   -4.9489    4.9197   -2.0811 H   0  0  0  0  0  0
   -4.6605    6.4417   -1.2753 H   0  0  0  0  0  0
   -3.9015    2.8285   -1.2458 H   0  0  0  0  0  0
   -2.3646    0.9294    1.3180 H   0  0  0  0  0  0
   -2.6190    0.9643   -0.4125 H   0  0  0  0  0  0
   -0.1972    1.9112    0.9538 H   0  0  0  0  0  0
   -0.4187   -0.4926    0.9818 H   0  0  0  0  0  0
   -0.5944   -0.4522   -0.7534 H   0  0  0  0  0  0
    2.7651   -1.3062    0.0562 H   0  0  0  0  0  0
    1.4692   -1.1432   -2.5003 H   0  0  0  0  0  0
    0.3907    0.1779   -2.8367 H   0  0  0  0  0  0
    3.7544   -1.2582   -3.4638 H   0  0  0  0  0  0
    4.4717    1.1676   -6.9652 H   0  0  0  0  0  0
    2.3728    2.3760   -6.5546 H   0  0  0  0  0  0
    0.9655    1.8336   -4.5833 H   0  0  0  0  0  0
    6.0798   -0.5858   -7.2811 H   0  0  0  0  0  0
    6.5757    0.7039   -6.1941 H   0  0  0  0  0  0
    7.6071   -2.1709   -6.1180 H   0  0  0  0  0  0
    8.4582   -0.8295   -6.8275 H   0  0  0  0  0  0
    7.8024   -1.1436   -3.8489 H   0  0  0  0  0  0
    9.3407   -1.3987   -4.6148 H   0  0  0  0  0  0
    9.6902    0.7547   -3.8098 H   0  0  0  0  0  0
    9.1562    1.1020   -5.4106 H   0  0  0  0  0  0
    9.3986    1.2763   -1.8340 H   0  0  0  0  0  0
    6.2514    1.5149    1.0793 H   0  0  0  0  0  0
    5.3003    1.6114   -3.1257 H   0  0  0  0  0  0
    3.8648    0.1934   -2.0247 H   0  0  0  0  0  0
    9.1277    3.7976   -0.2464 H   0  0  0  0  0  0
   10.6058    3.1101   -0.9384 H   0  0  0  0  0  0
   10.6773    4.1573    0.4744 H   0  0  0  0  0  0
   11.3382    1.0108    2.0006 H   0  0  0  0  0  0
   10.7301    2.4596    2.8108 H   0  0  0  0  0  0
   11.9576    2.5857    1.5489 H   0  0  0  0  0  0
   -2.3035    5.4386    2.5261 H   0  0  0  0  0  0
  1  2  1  0  0  0
  1 44  1  0  0  0
  1 45  1  0  0  0
  1 46  1  0  0  0
  2  3  1  0  0  0
  2 47  1  0  0  0
  2 48  1  0  0  0
  3 41  1  0  0  0
  3  4  2  0  0  0
  4  5  1  0  0  0
  4 49  1  0  0  0
  5  6  1  0  0  0
  5 39  2  0  0  0
  6  7  1  0  0  0
  6 50  1  0  0  0
  6 51  1  0  0  0
  7  8  1  0  0  0
  7 52  1  0  0  0
  8  9  1  0  0  0
  8 53  1  0  0  0
  8 54  1  0  0  0
  9 42  1  0  0  0
  9 10  1  0  0  0
  9 11  1  0  0  0
 10 55  1  0  0  0
 11 43  1  0  0  0
 11 33  1  0  0  0
 11 12  1  0  0  0
 12 13  1  0  0  0
 12 56  1  0  0  0
 12 57  1  0  0  0
 13 18  1  0  0  0
 13 14  2  0  0  0
 14 15  1  0  0  0
 14 58  1  0  0  0
 15 16  2  0  0  0
 15 19  1  0  0  0
 16 17  1  0  0  0
 16 59  1  0  0  0
 17 18  2  0  0  0
 17 60  1  0  0  0
 18 61  1  0  0  0
 19 20  1  0  0  0
 20 21  1  0  0  0
 20 62  1  0  0  0
 20 63  1  0  0  0
 21 22  1  0  0  0
 21 64  1  0  0  0
 21 65  1  0  0  0
 22 23  1  0  0  0
 22 66  1  0  0  0
 22 67  1  0  0  0
 23 24  1  0  0  0
 23 68  1  0  0  0
 23 69  1  0  0  0
 24 25  1  0  0  0
 25 30  1  0  0  0
 25 26  2  0  0  0
 26 27  1  0  0  0
 26 70  1  0  0  0
 27 28  2  0  0  0
 27 34  1  0  0  0
 28 29  1  0  0  0
 28 71  1  0  0  0
 29 30  2  0  0  0
 29 31  1  0  0  0
 30 72  1  0  0  0
 31 32  2  0  0  0
 31 33  1  0  0  0
 33 73  1  0  0  0
 34 35  2  0  0  0
 34 36  1  0  0  0
 36 37  1  0  0  0
 36 38  1  0  0  0
 37 74  1  0  0  0
 37 75  1  0  0  0
 37 76  1  0  0  0
 38 77  1  0  0  0
 38 78  1  0  0  0
 38 79  1  0  0  0
 39 40  1  0  0  0
 40 41  2  0  0  0
 40 80  1  0  0  0
M  END
> <s_m_source_file>
BACE_141.smi

> <i_m_source_file_index>
1

> <i_lp_mmshare_version>
42013

> <i_f3d_flags>
0

> <s_epik_input>
W0NIM11bQ0gyXWMxW2NIXWMobltjSF1uMSlbQ0gyXVtOSF1bQ0gyXVtDQEBIXShbT0hdKVtDQEhdKFtDSDJdMilbTkhdQyg9TyljKFtjSF0zKVtjSF1jKEMoPU8pTihbQ0gzXSlbQ0gzXSlbY0hdYzNPW0NIMl1bQ0gyXVtDSDJdW0NIMl1PYyhbY0hdYzI0KVtjSF1bY0hdW2NIXTQ=

> <s_epik_cmdline>
J2VwaWtfcHl0aG9uJywgJy1waCcsICc3LjAnLCAnLXRuJywgJzgnLCAnLW1hJywgJzIwMCcsICctaW1hZScsICc8aW5maWxlLm1hZT4nLCAnLW9tYWUnLCAnPG91dGZpbGUubWFlPic=

> <r_lp_tautomer_probability>
1

> <r_epik_Ionization_Penalty>
1.08525

> <r_epik_Ionization_Penalty_Charging>
0

> <r_epik_Ionization_Penalty_Neutral>
1.08525

> <r_epik_State_Penalty>
1.14102

> <r_epik_Charging_Adjusted_Penalty>
1.14102

> <i_epik_Tot_Q>
0

> <i_epik_Tot_abs_Q>
0

> <s_epik_Chemistry_Notes>
This compound contains an electron-poor aromatic ring that is susceptible to covalent hydrolysis at low pH, typically resulting in measured values for nitrogen ring protonation that are around two units higher than predicted values.

> <s_lp_Force_Field>
OPLS_2005

> <r_lp_Energy>
42.4592

> <b_lp_Chiralities_Consistent>
1

> <s_lp_Variant>
BACE_141.smi:1-2

$$$$
