BACE_107.smi:1
                    3D
 Structure written by MMmdl.
 84 87  0  0  1  0            999 V2000
   -3.1655    3.0341    2.9660 C   0  0  0  0  0  0
   -3.4293    3.3780    1.4917 C   0  0  0  0  0  0
   -4.6558    2.6306    0.9450 C   0  0  0  0  0  0
   -2.1942    3.1415    0.6311 C   0  0  0  0  0  0
   -1.5808    4.2246   -0.0303 C   0  0  0  0  0  0
   -0.4379    4.0123   -0.8207 C   0  0  0  0  0  0
    0.0965    2.7180   -0.9546 C   0  0  0  0  0  0
   -0.5027    1.6138   -0.3034 C   0  0  0  0  0  0
   -1.6525    1.8445    0.4918 C   0  0  0  0  0  0
    0.1211    0.2145   -0.4619 C   0  0  0  0  0  0
   -0.6803   -0.9068    0.2441 C   0  0  0  0  0  0
    0.1785   -0.1571   -1.9584 C   0  0  0  0  0  0
    1.5150    0.2277    0.0541 N   0  3  0  0  0  0
    1.7154    0.5817    1.4803 C   0  0  0  0  0  0
    3.2127    0.6068    1.8378 C   0  0  1  0  0  0
    3.3329    1.1488    3.1377 O   0  0  0  0  0  0
    3.8877   -0.7911    1.7756 C   0  0  2  0  0  0
    3.4518   -1.7819    2.8881 C   0  0  0  0  0  0
    4.2390   -3.0847    2.8886 C   0  0  0  0  0  0
    3.8248   -4.1693    2.0904 C   0  0  0  0  0  0
    4.5801   -5.3585    2.0613 C   0  0  0  0  0  0
    4.0531   -6.6672    1.0639 Cl  0  0  0  0  0  0
    5.7633   -5.4685    2.8261 C   0  0  0  0  0  0
    6.5067   -6.6138    2.7657 O   0  0  0  0  0  0
    6.1803   -4.3848    3.6337 C   0  0  0  0  0  0
    7.4849   -4.4197    4.4177 C   0  0  0  0  0  0
    8.6234   -3.7819    3.6054 C   0  0  0  0  0  0
    9.7753   -3.2198    4.4580 C   0  0  0  0  0  0
   10.7539   -2.3157    3.6784 C   0  0  0  0  0  0
   10.1324   -1.0703    3.3454 O   0  0  0  0  0  0
    9.5382   -0.9731    2.1078 C   0  0  0  0  0  0
    8.1988   -0.5430    2.0244 C   0  0  0  0  0  0
    7.5441   -0.5989    0.7732 C   0  0  0  0  0  0
    8.3008   -0.9732   -0.3582 C   0  0  0  0  0  0
    9.6529   -1.3325   -0.1791 C   0  0  0  0  0  0
   10.5014   -1.7626   -1.3571 C   0  0  0  0  0  0
   10.2589   -1.3537    1.0276 N   0  0  0  0  0  0
    6.0744   -0.3193    0.6480 C   0  0  0  0  0  0
    5.5863    0.0982   -0.4026 O   0  0  0  0  0  0
    5.3445   -0.6739    1.7187 N   0  0  0  0  0  0
    5.4062   -3.2058    3.6693 C   0  0  0  0  0  0
    3.7086    1.2976    1.1549 H   0  0  0  0  0  0
    3.6050   -1.2586    0.8308 H   0  0  0  0  0  0
   -2.3253    3.6088    3.3568 H   0  0  0  0  0  0
   -2.9366    1.9764    3.0994 H   0  0  0  0  0  0
   -4.0351    3.2628    3.5828 H   0  0  0  0  0  0
   -3.6619    4.4431    1.4500 H   0  0  0  0  0  0
   -4.8639    2.9211   -0.0852 H   0  0  0  0  0  0
   -5.5448    2.8557    1.5350 H   0  0  0  0  0  0
   -4.5126    1.5501    0.9645 H   0  0  0  0  0  0
   -1.9811    5.2233    0.0665 H   0  0  0  0  0  0
    0.0318    4.8449   -1.3234 H   0  0  0  0  0  0
    0.9813    2.5831   -1.5588 H   0  0  0  0  0  0
   -2.1414    1.0345    1.0095 H   0  0  0  0  0  0
   -1.6846   -0.9977   -0.1721 H   0  0  0  0  0  0
   -0.7893   -0.7398    1.3153 H   0  0  0  0  0  0
   -0.1947   -1.8757    0.1211 H   0  0  0  0  0  0
   -0.8171   -0.1527   -2.4041 H   0  0  0  0  0  0
    0.5952   -1.1548   -2.1038 H   0  0  0  0  0  0
    0.7975    0.5302   -2.5350 H   0  0  0  0  0  0
    1.9125   -0.6877   -0.1005 H   0  0  0  0  0  0
    1.2898    1.5686    1.6655 H   0  0  0  0  0  0
    1.1874   -0.1145    2.1300 H   0  0  0  0  0  0
    4.2512    1.2439    3.3412 H   0  0  0  0  0  0
    3.5680   -1.3264    3.8719 H   0  0  0  0  0  0
    2.3912   -2.0150    2.7906 H   0  0  0  0  0  0
    2.9313   -4.0870    1.4890 H   0  0  0  0  0  0
    6.1317   -7.2650    2.1923 H   0  0  0  0  0  0
    7.3298   -3.8649    5.3439 H   0  0  0  0  0  0
    7.7446   -5.4354    4.7167 H   0  0  0  0  0  0
    8.9961   -4.4811    2.8561 H   0  0  0  0  0  0
    8.1844   -2.9625    3.0475 H   0  0  0  0  0  0
    9.3713   -2.6498    5.2955 H   0  0  0  0  0  0
   10.3254   -4.0530    4.8961 H   0  0  0  0  0  0
   11.6029   -2.0830    4.3211 H   0  0  0  0  0  0
   11.1686   -2.8490    2.8226 H   0  0  0  0  0  0
    7.6724   -0.2633    2.9252 H   0  0  0  0  0  0
    7.8499   -1.0168   -1.3392 H   0  0  0  0  0  0
   10.1049   -1.3629   -2.2908 H   0  0  0  0  0  0
   10.5190   -2.8502   -1.4297 H   0  0  0  0  0  0
   11.5271   -1.4085   -1.2472 H   0  0  0  0  0  0
    5.8503   -1.0160    2.5234 H   0  0  0  0  0  0
    5.7341   -2.3710    4.2719 H   0  0  0  0  0  0
    2.0353    0.8940   -0.4986 H   0  0  0  0  0  0
  1  2  1  0  0  0
  1 44  1  0  0  0
  1 45  1  0  0  0
  1 46  1  0  0  0
  2  3  1  0  0  0
  2  4  1  0  0  0
  2 47  1  0  0  0
  3 48  1  0  0  0
  3 49  1  0  0  0
  3 50  1  0  0  0
  4  9  1  0  0  0
  4  5  2  0  0  0
  5  6  1  0  0  0
  5 51  1  0  0  0
  6  7  2  0  0  0
  6 52  1  0  0  0
  7  8  1  0  0  0
  7 53  1  0  0  0
  8  9  2  0  0  0
  8 10  1  0  0  0
  9 54  1  0  0  0
 10 11  1  0  0  0
 10 12  1  0  0  0
 10 13  1  0  0  0
 11 55  1  0  0  0
 11 56  1  0  0  0
 11 57  1  0  0  0
 12 58  1  0  0  0
 12 59  1  0  0  0
 12 60  1  0  0  0
 13 14  1  0  0  0
 13 61  1  0  0  0
 13 84  1  0  0  0
 14 15  1  0  0  0
 14 62  1  0  0  0
 14 63  1  0  0  0
 15 42  1  0  0  0
 15 16  1  0  0  0
 15 17  1  0  0  0
 16 64  1  0  0  0
 17 43  1  0  0  0
 17 40  1  0  0  0
 17 18  1  0  0  0
 18 19  1  0  0  0
 18 65  1  0  0  0
 18 66  1  0  0  0
 19 41  1  0  0  0
 19 20  2  0  0  0
 20 21  1  0  0  0
 20 67  1  0  0  0
 21 22  1  0  0  0
 21 23  2  0  0  0
 23 24  1  0  0  0
 23 25  1  0  0  0
 24 68  1  0  0  0
 25 26  1  0  0  0
 25 41  2  0  0  0
 26 27  1  0  0  0
 26 69  1  0  0  0
 26 70  1  0  0  0
 27 28  1  0  0  0
 27 71  1  0  0  0
 27 72  1  0  0  0
 28 29  1  0  0  0
 28 73  1  0  0  0
 28 74  1  0  0  0
 29 30  1  0  0  0
 29 75  1  0  0  0
 29 76  1  0  0  0
 30 31  1  0  0  0
 31 37  1  0  0  0
 31 32  2  0  0  0
 32 33  1  0  0  0
 32 77  1  0  0  0
 33 34  2  0  0  0
 33 38  1  0  0  0
 34 35  1  0  0  0
 34 78  1  0  0  0
 35 36  1  0  0  0
 35 37  2  0  0  0
 36 79  1  0  0  0
 36 80  1  0  0  0
 36 81  1  0  0  0
 38 39  2  0  0  0
 38 40  1  0  0  0
 40 82  1  0  0  0
 41 83  1  0  0  0
M  CHG  1  13   1
M  END
> <s_m_source_file>
BACE_107.smi

> <i_m_source_file_index>
1

> <i_lp_mmshare_version>
42013

> <i_f3d_flags>
0

> <s_epik_input>
W0NIM11bQ0hdKFtDSDNdKWMxW2NIXVtjSF1bY0hdYyhbY0hdMSlDKFtDSDNdKShbQ0gzXSlbTkhdW0NIMl1bQ0BASF0oW09IXSlbQ0BIXShbQ0gyXTIpW05IXUMoPU8pYyhbY0hdYyhuMylbQ0gzXSlbY0hdYzNPW0NIMl1bQ0gyXVtDSDJdW0NIMl1jKFtjSF00KWMoW09IXSljKENsKVtjSF1jMjQ=

> <s_epik_cmdline>
J2VwaWtfcHl0aG9uJywgJy1waCcsICc3LjAnLCAnLXRuJywgJzgnLCAnLW1hJywgJzIwMCcsICctaW1hZScsICc8aW5maWxlLm1hZT4nLCAnLW9tYWUnLCAnPG91dGZpbGUubWFlPic=

> <r_lp_tautomer_probability>
1

> <r_epik_Ionization_Penalty>
0.0227038

> <r_epik_Ionization_Penalty_Charging>
0.0202907

> <r_epik_Ionization_Penalty_Neutral>
0.00241313

> <r_epik_State_Penalty>
0.0162549

> <r_epik_Charging_Adjusted_Penalty>
0.0365456

> <i_epik_Tot_Q>
1

> <i_epik_Tot_abs_Q>
1

> <s_lp_Force_Field>
OPLS_2005

> <r_lp_Energy>
33.1618

> <b_lp_Chiralities_Consistent>
1

> <s_lp_Variant>
BACE_107.smi:1-1

$$$$
BACE_107.smi:1
                    3D
 Structure written by MMmdl.
 83 86  0  0  1  0            999 V2000
   -3.3030    3.6740    3.1980 C   0  0  0  0  0  0
   -3.4469    3.9308    1.6891 C   0  0  0  0  0  0
   -4.7052    3.2596    1.1160 C   0  0  0  0  0  0
   -2.1932    3.5207    0.9263 C   0  0  0  0  0  0
   -1.4599    4.4865    0.2070 C   0  0  0  0  0  0
   -0.3020    4.1123   -0.4973 C   0  0  0  0  0  0
    0.1308    2.7737   -0.4820 C   0  0  0  0  0  0
   -0.5825    1.7874    0.2402 C   0  0  0  0  0  0
   -1.7543    2.1779    0.9337 C   0  0  0  0  0  0
   -0.0849    0.3297    0.2312 C   0  0  0  0  0  0
   -0.7820   -0.5660    1.2851 C   0  0  0  0  0  0
   -0.3878   -0.2697   -1.1549 C   0  0  0  0  0  0
    1.3748    0.2748    0.4196 N   0  0  0  0  0  0
    1.9001    0.6624    1.7320 C   0  0  0  0  0  0
    3.4372    0.6049    1.7558 C   0  0  1  0  0  0
    3.8644    1.1764    2.9765 O   0  0  0  0  0  0
    4.0058   -0.8332    1.6210 C   0  0  2  0  0  0
    3.6050   -1.7935    2.7735 C   0  0  0  0  0  0
    4.4082   -3.0865    2.8206 C   0  0  0  0  0  0
    4.2130   -4.0739    1.8351 C   0  0  0  0  0  0
    4.9672   -5.2627    1.8616 C   0  0  0  0  0  0
    4.7100   -6.4501    0.6329 Cl  0  0  0  0  0  0
    5.9256   -5.4723    2.8780 C   0  0  0  0  0  0
    6.6597   -6.6252    2.8897 O   0  0  0  0  0  0
    6.1269   -4.4863    3.8729 C   0  0  0  0  0  0
    7.1774   -4.6689    4.9648 C   0  0  0  0  0  0
    8.6188   -4.3866    4.4911 C   0  0  0  0  0  0
    8.7880   -2.9860    3.8839 C   0  0  0  0  0  0
   10.2064   -2.6815    3.3620 C   0  0  0  0  0  0
   10.2833   -1.3636    2.8184 O   0  0  0  0  0  0
    9.6316   -1.2141    1.6205 C   0  0  0  0  0  0
    8.2996   -0.7589    1.5953 C   0  0  0  0  0  0
    7.5947   -0.7929    0.3728 C   0  0  0  0  0  0
    8.3008   -1.1666   -0.7916 C   0  0  0  0  0  0
    9.6543   -1.5488   -0.6683 C   0  0  0  0  0  0
   10.4513   -1.9730   -1.8842 C   0  0  0  0  0  0
   10.3066   -1.5968    0.5148 N   0  0  0  0  0  0
    6.1260   -0.4880    0.3213 C   0  0  0  0  0  0
    5.5907   -0.0684   -0.7046 O   0  0  0  0  0  0
    5.4562   -0.8103    1.4407 N   0  0  0  0  0  0
    5.3603   -3.3004    3.8396 C   0  0  0  0  0  0
    3.8168    1.2362    0.9515 H   0  0  0  0  0  0
    3.6081   -1.2718    0.7039 H   0  0  0  0  0  0
   -2.4350    4.1953    3.6026 H   0  0  0  0  0  0
   -3.1869    2.6125    3.4184 H   0  0  0  0  0  0
   -4.1801    4.0280    3.7401 H   0  0  0  0  0  0
   -3.5732    5.0067    1.5614 H   0  0  0  0  0  0
   -4.8302    3.4997    0.0597 H   0  0  0  0  0  0
   -5.6009    3.5977    1.6378 H   0  0  0  0  0  0
   -4.6610    2.1741    1.2081 H   0  0  0  0  0  0
   -1.7820    5.5173    0.1900 H   0  0  0  0  0  0
    0.2562    4.8530   -1.0508 H   0  0  0  0  0  0
    1.0213    2.5077   -1.0326 H   0  0  0  0  0  0
   -2.3360    1.4568    1.4857 H   0  0  0  0  0  0
   -1.8424   -0.6938    1.0648 H   0  0  0  0  0  0
   -0.7075   -0.1561    2.2927 H   0  0  0  0  0  0
   -0.3440   -1.5649    1.3050 H   0  0  0  0  0  0
   -1.4572   -0.2507   -1.3689 H   0  0  0  0  0  0
   -0.0589   -1.3075   -1.2218 H   0  0  0  0  0  0
    0.1134    0.2817   -1.9513 H   0  0  0  0  0  0
    1.7399   -0.6258    0.1272 H   0  0  0  0  0  0
    1.5748    1.6758    1.9699 H   0  0  0  0  0  0
    1.5031    0.0207    2.5173 H   0  0  0  0  0  0
    4.8077    1.2301    2.9665 H   0  0  0  0  0  0
    3.7171   -1.2955    3.7369 H   0  0  0  0  0  0
    2.5477   -2.0484    2.6935 H   0  0  0  0  0  0
    3.4875   -3.9165    1.0504 H   0  0  0  0  0  0
    7.2756   -6.6649    3.6051 H   0  0  0  0  0  0
    6.9376   -4.0100    5.8004 H   0  0  0  0  0  0
    7.1096   -5.6822    5.3619 H   0  0  0  0  0  0
    9.3041   -4.5071    5.3308 H   0  0  0  0  0  0
    8.9091   -5.1329    3.7509 H   0  0  0  0  0  0
    8.0851   -2.9005    3.0587 H   0  0  0  0  0  0
    8.5010   -2.2311    4.6167 H   0  0  0  0  0  0
   10.9221   -2.7504    4.1815 H   0  0  0  0  0  0
   10.5116   -3.4215    2.6201 H   0  0  0  0  0  0
    7.8163   -0.4774    2.5197 H   0  0  0  0  0  0
    7.8112   -1.1903   -1.7548 H   0  0  0  0  0  0
   10.0131   -1.5720   -2.7985 H   0  0  0  0  0  0
   10.4694   -3.0603   -1.9612 H   0  0  0  0  0  0
   11.4795   -1.6151   -1.8185 H   0  0  0  0  0  0
    6.0024   -1.1631    2.2132 H   0  0  0  0  0  0
    5.5179   -2.5409    4.5918 H   0  0  0  0  0  0
  1  2  1  0  0  0
  1 44  1  0  0  0
  1 45  1  0  0  0
  1 46  1  0  0  0
  2  3  1  0  0  0
  2  4  1  0  0  0
  2 47  1  0  0  0
  3 48  1  0  0  0
  3 49  1  0  0  0
  3 50  1  0  0  0
  4  9  1  0  0  0
  4  5  2  0  0  0
  5  6  1  0  0  0
  5 51  1  0  0  0
  6  7  2  0  0  0
  6 52  1  0  0  0
  7  8  1  0  0  0
  7 53  1  0  0  0
  8  9  2  0  0  0
  8 10  1  0  0  0
  9 54  1  0  0  0
 10 11  1  0  0  0
 10 12  1  0  0  0
 10 13  1  0  0  0
 11 55  1  0  0  0
 11 56  1  0  0  0
 11 57  1  0  0  0
 12 58  1  0  0  0
 12 59  1  0  0  0
 12 60  1  0  0  0
 13 14  1  0  0  0
 13 61  1  0  0  0
 14 15  1  0  0  0
 14 62  1  0  0  0
 14 63  1  0  0  0
 15 42  1  0  0  0
 15 16  1  0  0  0
 15 17  1  0  0  0
 16 64  1  0  0  0
 17 43  1  0  0  0
 17 40  1  0  0  0
 17 18  1  0  0  0
 18 19  1  0  0  0
 18 65  1  0  0  0
 18 66  1  0  0  0
 19 41  1  0  0  0
 19 20  2  0  0  0
 20 21  1  0  0  0
 20 67  1  0  0  0
 21 22  1  0  0  0
 21 23  2  0  0  0
 23 24  1  0  0  0
 23 25  1  0  0  0
 24 68  1  0  0  0
 25 26  1  0  0  0
 25 41  2  0  0  0
 26 27  1  0  0  0
 26 69  1  0  0  0
 26 70  1  0  0  0
 27 28  1  0  0  0
 27 71  1  0  0  0
 27 72  1  0  0  0
 28 29  1  0  0  0
 28 73  1  0  0  0
 28 74  1  0  0  0
 29 30  1  0  0  0
 29 75  1  0  0  0
 29 76  1  0  0  0
 30 31  1  0  0  0
 31 37  1  0  0  0
 31 32  2  0  0  0
 32 33  1  0  0  0
 32 77  1  0  0  0
 33 34  2  0  0  0
 33 38  1  0  0  0
 34 35  1  0  0  0
 34 78  1  0  0  0
 35 36  1  0  0  0
 35 37  2  0  0  0
 36 79  1  0  0  0
 36 80  1  0  0  0
 36 81  1  0  0  0
 38 39  2  0  0  0
 38 40  1  0  0  0
 40 82  1  0  0  0
 41 83  1  0  0  0
M  END
> <s_m_source_file>
BACE_107.smi

> <i_m_source_file_index>
1

> <i_lp_mmshare_version>
42013

> <i_f3d_flags>
0

> <s_epik_input>
W0NIM11bQ0hdKFtDSDNdKWMxW2NIXVtjSF1bY0hdYyhbY0hdMSlDKFtDSDNdKShbQ0gzXSlbTkhdW0NIMl1bQ0BASF0oW09IXSlbQ0BIXShbQ0gyXTIpW05IXUMoPU8pYyhbY0hdYyhuMylbQ0gzXSlbY0hdYzNPW0NIMl1bQ0gyXVtDSDJdW0NIMl1jKFtjSF00KWMoW09IXSljKENsKVtjSF1jMjQ=

> <s_epik_cmdline>
J2VwaWtfcHl0aG9uJywgJy1waCcsICc3LjAnLCAnLXRuJywgJzgnLCAnLW1hJywgJzIwMCcsICctaW1hZScsICc8aW5maWxlLm1hZT4nLCAnLW9tYWUnLCAnPG91dGZpbGUubWFlPic=

> <r_lp_tautomer_probability>
1

> <r_epik_Ionization_Penalty>
2.01128

> <r_epik_Ionization_Penalty_Charging>
0

> <r_epik_Ionization_Penalty_Neutral>
2.01128

> <r_epik_State_Penalty>
2.13865

> <r_epik_Charging_Adjusted_Penalty>
2.13865

> <i_epik_Tot_Q>
0

> <i_epik_Tot_abs_Q>
0

> <s_lp_Force_Field>
OPLS_2005

> <r_lp_Energy>
33.351

> <b_lp_Chiralities_Consistent>
1

> <s_lp_Variant>
BACE_107.smi:1-2

$$$$
