BACE_75.smi:1
                    3D
 Structure written by MMmdl.
 90 93  0  0  1  0            999 V2000
    1.7455    7.4981    3.8798 C   0  0  0  0  0  0
    1.2974    6.5288    2.9495 O   0  0  0  0  0  0
    0.0851    6.8985    2.3133 C   0  0  0  0  0  0
   -0.3583    5.8617    1.2985 C   0  0  0  0  0  0
   -0.8167    6.2646    0.0283 C   0  0  0  0  0  0
   -1.2514    5.3115   -0.9139 C   0  0  0  0  0  0
   -1.2151    3.9399   -0.5719 C   0  0  0  0  0  0
   -0.7312    3.5172    0.6888 C   0  0  0  0  0  0
   -0.3255    4.4915    1.6270 C   0  0  0  0  0  0
   -0.6221    2.0560    1.0328 C   0  0  0  0  0  0
   -0.5815    1.6770    2.2035 O   0  0  0  0  0  0
   -0.4493    1.2369   -0.0169 N   0  0  0  0  0  0
    0.0810   -0.1277    0.0266 C   0  0  1  0  0  0
   -0.6830   -1.0042   -0.9924 C   0  0  0  0  0  0
   -2.2016   -1.1555   -0.7271 C   0  0  2  0  0  0
   -2.4708   -2.0485    0.4965 C   0  0  0  0  0  0
   -2.9701   -1.6965   -1.9567 C   0  0  0  0  0  0
   -2.9609   -0.7709   -3.1868 C   0  0  0  0  0  0
   -3.3714    0.5247   -2.7877 O   0  0  0  0  0  0
   -3.3776    1.4773   -3.8348 C   0  0  0  0  0  0
   -3.5655    2.8552   -3.2433 C   0  0  0  0  0  0
   -2.7328    3.8917   -3.4289 C   0  0  0  0  0  0
   -2.9024    5.2304   -2.7413 C   0  0  0  0  0  0
   -1.6732    5.7686   -2.1723 N   0  0  0  0  0  0
    1.6039   -0.1059   -0.2863 C   0  0  2  0  0  0
    2.2946    0.1982    0.9104 O   0  0  0  0  0  0
    1.9925    0.9143   -1.3767 C   0  0  0  0  0  0
    3.3909    0.8013   -1.7885 N   0  0  0  0  0  0
    3.8059    1.7041   -2.8707 C   0  0  0  0  0  0
    3.9785    1.1040   -4.2490 C   0  0  0  0  0  0
    5.1911    1.4990   -3.4369 C   0  0  0  0  0  0
    3.2826    3.1076   -2.7061 C   0  0  0  0  0  0
    3.7972    3.9389   -1.6896 C   0  0  0  0  0  0
    3.2653    5.2275   -1.4446 C   0  0  0  0  0  0
    2.2076    5.6838   -2.2691 C   0  0  0  0  0  0
    1.6951    4.8682   -3.2946 C   0  0  0  0  0  0
    2.2259    3.5845   -3.5091 C   0  0  0  0  0  0
    3.8348    6.0719   -0.2898 C   0  0  0  0  0  0
    5.3253    6.3672   -0.5532 C   0  0  0  0  0  0
    3.6959    5.2931    1.0352 C   0  0  0  0  0  0
    3.1093    7.4252   -0.1164 C   0  0  0  0  0  0
   -0.0674   -0.5633    1.0156 H   0  0  0  0  0  0
   -2.6182   -0.1752   -0.4960 H   0  0  0  0  0  0
    1.9233   -1.1043   -0.5882 H   0  0  0  0  0  0
    2.6729    7.1596    4.3418 H   0  0  0  0  0  0
    1.0116    7.6547    4.6714 H   0  0  0  0  0  0
    1.9430    8.4521    3.3894 H   0  0  0  0  0  0
   -0.7044    7.0135    3.0574 H   0  0  0  0  0  0
    0.2099    7.8633    1.8189 H   0  0  0  0  0  0
   -0.8359    7.3148   -0.2248 H   0  0  0  0  0  0
   -1.5233    3.1984   -1.2903 H   0  0  0  0  0  0
    0.0379    4.1912    2.5994 H   0  0  0  0  0  0
   -0.5157    1.6534   -0.9342 H   0  0  0  0  0  0
   -0.5228   -0.5724   -1.9785 H   0  0  0  0  0  0
   -0.2330   -1.9968   -1.0348 H   0  0  0  0  0  0
   -2.0592   -3.0485    0.3564 H   0  0  0  0  0  0
   -3.5408   -2.1536    0.6777 H   0  0  0  0  0  0
   -2.0352   -1.6314    1.4040 H   0  0  0  0  0  0
   -2.5786   -2.6748   -2.2374 H   0  0  0  0  0  0
   -4.0106   -1.8613   -1.6733 H   0  0  0  0  0  0
   -1.9699   -0.7344   -3.6394 H   0  0  0  0  0  0
   -3.6413   -1.1575   -3.9468 H   0  0  0  0  0  0
   -2.4409    1.4450   -4.3940 H   0  0  0  0  0  0
   -4.1907    1.2620   -4.5288 H   0  0  0  0  0  0
   -4.4193    2.9737   -2.5921 H   0  0  0  0  0  0
   -1.8748    3.7865   -4.0774 H   0  0  0  0  0  0
   -3.2665    5.9449   -3.4796 H   0  0  0  0  0  0
   -3.6686    5.1607   -1.9677 H   0  0  0  0  0  0
   -1.5521    6.7603   -2.3198 H   0  0  0  0  0  0
    2.0464   -0.4321    1.5692 H   0  0  0  0  0  0
    1.3531    0.7768   -2.2491 H   0  0  0  0  0  0
    1.7977    1.9197   -1.0030 H   0  0  0  0  0  0
    4.0208    0.8677   -0.9951 H   0  0  0  0  0  0
    3.7993    0.0376   -4.3715 H   0  0  0  0  0  0
    3.7451    1.7173   -5.1169 H   0  0  0  0  0  0
    5.7435    2.3787   -3.7615 H   0  0  0  0  0  0
    5.7974    0.6883   -3.0373 H   0  0  0  0  0  0
    4.5972    3.5592   -1.0719 H   0  0  0  0  0  0
    1.7587    6.6550   -2.1322 H   0  0  0  0  0  0
    0.8804    5.2233   -3.9084 H   0  0  0  0  0  0
    1.8041    2.9587   -4.2816 H   0  0  0  0  0  0
    5.7556    6.9773    0.2417 H   0  0  0  0  0  0
    5.4603    6.9079   -1.4908 H   0  0  0  0  0  0
    5.9188    5.4548   -0.6131 H   0  0  0  0  0  0
    4.2781    4.3718    1.0366 H   0  0  0  0  0  0
    2.6572    5.0201    1.2222 H   0  0  0  0  0  0
    4.0380    5.8864    1.8839 H   0  0  0  0  0  0
    3.5246    7.9927    0.7175 H   0  0  0  0  0  0
    2.0478    7.2895    0.0897 H   0  0  0  0  0  0
    3.2035    8.0508   -1.0047 H   0  0  0  0  0  0
  1  2  1  0  0  0
  1 45  1  0  0  0
  1 46  1  0  0  0
  1 47  1  0  0  0
  2  3  1  0  0  0
  3  4  1  0  0  0
  3 48  1  0  0  0
  3 49  1  0  0  0
  4  9  1  0  0  0
  4  5  2  0  0  0
  5  6  1  0  0  0
  5 50  1  0  0  0
  6 24  1  0  0  0
  6  7  2  0  0  0
  7  8  1  0  0  0
  7 51  1  0  0  0
  8  9  2  0  0  0
  8 10  1  0  0  0
  9 52  1  0  0  0
 10 11  2  0  0  0
 10 12  1  0  0  0
 12 13  1  0  0  0
 12 53  1  0  0  0
 13 42  1  0  0  0
 13 14  1  0  0  0
 13 25  1  0  0  0
 14 15  1  0  0  0
 14 54  1  0  0  0
 14 55  1  0  0  0
 15 43  1  0  0  0
 15 16  1  0  0  0
 15 17  1  0  0  0
 16 56  1  0  0  0
 16 57  1  0  0  0
 16 58  1  0  0  0
 17 18  1  0  0  0
 17 59  1  0  0  0
 17 60  1  0  0  0
 18 19  1  0  0  0
 18 61  1  0  0  0
 18 62  1  0  0  0
 19 20  1  0  0  0
 20 21  1  0  0  0
 20 63  1  0  0  0
 20 64  1  0  0  0
 21 22  2  0  0  0
 21 65  1  0  0  0
 22 23  1  0  0  0
 22 66  1  0  0  0
 23 24  1  0  0  0
 23 67  1  0  0  0
 23 68  1  0  0  0
 24 69  1  0  0  0
 25 44  1  0  0  0
 25 26  1  0  0  0
 25 27  1  0  0  0
 26 70  1  0  0  0
 27 28  1  0  0  0
 27 71  1  0  0  0
 27 72  1  0  0  0
 28 29  1  0  0  0
 28 73  1  0  0  0
 29 31  1  0  0  0
 29 30  1  0  0  0
 29 32  1  0  0  0
 30 31  1  0  0  0
 30 74  1  0  0  0
 30 75  1  0  0  0
 31 76  1  0  0  0
 31 77  1  0  0  0
 32 37  1  0  0  0
 32 33  2  0  0  0
 33 34  1  0  0  0
 33 78  1  0  0  0
 34 35  2  0  0  0
 34 38  1  0  0  0
 35 36  1  0  0  0
 35 79  1  0  0  0
 36 37  2  0  0  0
 36 80  1  0  0  0
 37 81  1  0  0  0
 38 39  1  0  0  0
 38 40  1  0  0  0
 38 41  1  0  0  0
 39 82  1  0  0  0
 39 83  1  0  0  0
 39 84  1  0  0  0
 40 85  1  0  0  0
 40 86  1  0  0  0
 40 87  1  0  0  0
 41 88  1  0  0  0
 41 89  1  0  0  0
 41 90  1  0  0  0
M  END
> <s_m_source_file>
BACE_75.smi

> <i_m_source_file_index>
1

> <i_lp_mmshare_version>
42013

> <i_f3d_flags>
0

> <s_epik_input>
W2NIXTFbY0hdW2NIXWMoQyhbQ0gzXSkoW0NIM10pW0NIM10pW2NIXWMxQzIoW0NIMl1bQ0gyXTIpW05IXVtDSDJdW0NAQEhdKFtPSF0pW0NAQEhdKFtOSF1DKD1PKWMoW2NIXTMpW2NIXWMoW2NIXWMzNClbQ0gyXU9bQ0gzXSlbQ0gyXVtDQEhdKFtDSDNdKVtDSDJdW0NIMl1PW0NIMl0vW0NIXT1bQ0hdL1tDSDJdW05IXTQ=

> <s_epik_cmdline>
J2VwaWtfcHl0aG9uJywgJy1waCcsICc3LjAnLCAnLXRuJywgJzgnLCAnLW1hJywgJzIwMCcsICctaW1hZScsICc8aW5maWxlLm1hZT4nLCAnLW9tYWUnLCAnPG91dGZpbGUubWFlPic=

> <r_epik_Ionization_Penalty>
0.359528

> <r_epik_Ionization_Penalty_Charging>
0

> <r_epik_Ionization_Penalty_Neutral>
0.359528

> <r_epik_State_Penalty>
0.356171

> <r_epik_Charging_Adjusted_Penalty>
0.356171

> <i_epik_Tot_Q>
0

> <i_epik_Tot_abs_Q>
0

> <s_lp_Force_Field>
OPLS_2005

> <r_lp_Energy>
45.5342

> <b_lp_Chiralities_Consistent>
1

> <s_lp_Variant>
BACE_75.smi:1-1

$$$$
BACE_75.smi:1
                    3D
 Structure written by MMmdl.
 91 94  0  0  1  0            999 V2000
   -0.5666    8.7499    2.2347 C   0  0  0  0  0  0
   -0.2664    7.5373    1.5661 O   0  0  0  0  0  0
   -1.2085    7.2281    0.5525 C   0  0  0  0  0  0
   -0.8866    5.9090   -0.1211 C   0  0  0  0  0  0
   -0.6355    5.8574   -1.5062 C   0  0  0  0  0  0
   -0.3541    4.6293   -2.1360 C   0  0  0  0  0  0
   -0.3191    3.4461   -1.3624 C   0  0  0  0  0  0
   -0.5411    3.4854    0.0368 C   0  0  0  0  0  0
   -0.8409    4.7262    0.6427 C   0  0  0  0  0  0
   -0.4341    2.2465    0.8892 C   0  0  0  0  0  0
   -0.7975    2.2497    2.0654 O   0  0  0  0  0  0
    0.1733    1.1958    0.3157 N   0  0  0  0  0  0
    0.6938    0.0146    1.0087 C   0  0  1  0  0  0
    0.5151   -1.2226    0.0983 C   0  0  0  0  0  0
   -0.9480   -1.5740   -0.2676 C   0  0  2  0  0  0
   -1.7147   -2.1277    0.9464 C   0  0  0  0  0  0
   -1.0401   -2.5698   -1.4488 C   0  0  0  0  0  0
   -0.4998   -2.0383   -2.7885 C   0  0  0  0  0  0
   -1.1000   -0.7835   -3.0527 O   0  0  0  0  0  0
   -0.6641   -0.1767   -4.2540 C   0  0  0  0  0  0
   -1.1537    1.2515   -4.2866 C   0  0  0  0  0  0
   -0.3629    2.3278   -4.4143 C   0  0  0  0  0  0
   -0.8738    3.7516   -4.3596 C   0  0  0  0  0  0
   -0.0829    4.6342   -3.5122 N   0  0  0  0  0  0
    2.1943    0.2158    1.3686 C   0  0  2  0  0  0
    2.2905    0.7548    2.6717 O   0  0  0  0  0  0
    2.9718    1.1105    0.3817 C   0  0  0  0  0  0
    4.4356    0.9449    0.4981 N   0  3  0  0  0  0
    5.2373    1.8573   -0.3531 C   0  0  0  0  0  0
    6.7174    1.7676   -0.0672 C   0  0  0  0  0  0
    5.9202    2.9557    0.4285 C   0  0  0  0  0  0
    4.7156    2.0538   -1.7492 C   0  0  0  0  0  0
    4.9329    1.0675   -2.7345 C   0  0  0  0  0  0
    4.3935    1.1994   -4.0387 C   0  0  0  0  0  0
    3.6365    2.3572   -4.3351 C   0  0  0  0  0  0
    3.4239    3.3511   -3.3633 C   0  0  0  0  0  0
    3.9607    3.1994   -2.0739 C   0  0  0  0  0  0
    4.5874    0.1233   -5.1241 C   0  0  0  0  0  0
    3.2151   -0.4656   -5.5099 C   0  0  0  0  0  0
    5.4860   -1.0463   -4.6625 C   0  0  0  0  0  0
    5.2454    0.7493   -6.3718 C   0  0  0  0  0  0
    0.1302   -0.1667    1.9250 H   0  0  0  0  0  0
   -1.4633   -0.6636   -0.5738 H   0  0  0  0  0  0
    2.6763   -0.7617    1.4148 H   0  0  0  0  0  0
    0.1905    8.9469    2.9935 H   0  0  0  0  0  0
   -1.5356    8.6956    2.7329 H   0  0  0  0  0  0
   -0.5756    9.5920    1.5416 H   0  0  0  0  0  0
   -2.2092    7.1597    0.9824 H   0  0  0  0  0  0
   -1.2299    8.0289   -0.1887 H   0  0  0  0  0  0
   -0.6609    6.7662   -2.0900 H   0  0  0  0  0  0
   -0.0800    2.5101   -1.8416 H   0  0  0  0  0  0
   -1.0217    4.7858    1.7066 H   0  0  0  0  0  0
    0.4085    1.2795   -0.6629 H   0  0  0  0  0  0
    1.0910   -1.0435   -0.8082 H   0  0  0  0  0  0
    0.9739   -2.0944    0.5666 H   0  0  0  0  0  0
   -1.2473   -3.0343    1.3318 H   0  0  0  0  0  0
   -2.7433   -2.3736    0.6814 H   0  0  0  0  0  0
   -1.7620   -1.4040    1.7593 H   0  0  0  0  0  0
   -0.5265   -3.4976   -1.1937 H   0  0  0  0  0  0
   -2.0867   -2.8389   -1.5968 H   0  0  0  0  0  0
    0.5860   -1.9438   -2.7628 H   0  0  0  0  0  0
   -0.7377   -2.7392   -3.5898 H   0  0  0  0  0  0
    0.4247   -0.1877   -4.3200 H   0  0  0  0  0  0
   -1.0584   -0.7209   -5.1129 H   0  0  0  0  0  0
   -2.2176    1.3872   -4.1562 H   0  0  0  0  0  0
    0.7016    2.2008   -4.5471 H   0  0  0  0  0  0
   -0.8540    4.1566   -5.3715 H   0  0  0  0  0  0
   -1.9164    3.7640   -4.0382 H   0  0  0  0  0  0
    0.0256    5.5605   -3.9002 H   0  0  0  0  0  0
    1.7752    1.5469    2.7107 H   0  0  0  0  0  0
    2.6843    0.8384   -0.6344 H   0  0  0  0  0  0
    2.7114    2.1610    0.5221 H   0  0  0  0  0  0
    4.6988    1.0955    1.4616 H   0  0  0  0  0  0
    7.0624    1.0603    0.6849 H   0  0  0  0  0  0
    7.4071    1.9463   -0.8899 H   0  0  0  0  0  0
    6.0950    3.9076   -0.0693 H   0  0  0  0  0  0
    5.7440    3.0169    1.5009 H   0  0  0  0  0  0
    5.5080    0.1995   -2.4530 H   0  0  0  0  0  0
    3.2024    2.4922   -5.3146 H   0  0  0  0  0  0
    2.8397    4.2267   -3.6053 H   0  0  0  0  0  0
    3.7766    3.9595   -1.3285 H   0  0  0  0  0  0
    3.3143   -1.2358   -6.2759 H   0  0  0  0  0  0
    2.5388    0.2932   -5.9044 H   0  0  0  0  0  0
    2.7288   -0.9237   -4.6480 H   0  0  0  0  0  0
    5.0596   -1.5728   -3.8080 H   0  0  0  0  0  0
    6.4844   -0.7037   -4.3877 H   0  0  0  0  0  0
    5.6091   -1.7837   -5.4564 H   0  0  0  0  0  0
    5.4156    0.0019   -7.1475 H   0  0  0  0  0  0
    6.2116    1.1920   -6.1269 H   0  0  0  0  0  0
    4.6294    1.5309   -6.8162 H   0  0  0  0  0  0
    4.6636   -0.0066    0.2488 H   0  0  0  0  0  0
  1  2  1  0  0  0
  1 45  1  0  0  0
  1 46  1  0  0  0
  1 47  1  0  0  0
  2  3  1  0  0  0
  3  4  1  0  0  0
  3 48  1  0  0  0
  3 49  1  0  0  0
  4  9  1  0  0  0
  4  5  2  0  0  0
  5  6  1  0  0  0
  5 50  1  0  0  0
  6 24  1  0  0  0
  6  7  2  0  0  0
  7  8  1  0  0  0
  7 51  1  0  0  0
  8  9  2  0  0  0
  8 10  1  0  0  0
  9 52  1  0  0  0
 10 11  2  0  0  0
 10 12  1  0  0  0
 12 13  1  0  0  0
 12 53  1  0  0  0
 13 42  1  0  0  0
 13 14  1  0  0  0
 13 25  1  0  0  0
 14 15  1  0  0  0
 14 54  1  0  0  0
 14 55  1  0  0  0
 15 43  1  0  0  0
 15 16  1  0  0  0
 15 17  1  0  0  0
 16 56  1  0  0  0
 16 57  1  0  0  0
 16 58  1  0  0  0
 17 18  1  0  0  0
 17 59  1  0  0  0
 17 60  1  0  0  0
 18 19  1  0  0  0
 18 61  1  0  0  0
 18 62  1  0  0  0
 19 20  1  0  0  0
 20 21  1  0  0  0
 20 63  1  0  0  0
 20 64  1  0  0  0
 21 22  2  0  0  0
 21 65  1  0  0  0
 22 23  1  0  0  0
 22 66  1  0  0  0
 23 24  1  0  0  0
 23 67  1  0  0  0
 23 68  1  0  0  0
 24 69  1  0  0  0
 25 44  1  0  0  0
 25 26  1  0  0  0
 25 27  1  0  0  0
 26 70  1  0  0  0
 27 28  1  0  0  0
 27 71  1  0  0  0
 27 72  1  0  0  0
 28 29  1  0  0  0
 28 73  1  0  0  0
 28 91  1  0  0  0
 29 31  1  0  0  0
 29 30  1  0  0  0
 29 32  1  0  0  0
 30 31  1  0  0  0
 30 74  1  0  0  0
 30 75  1  0  0  0
 31 76  1  0  0  0
 31 77  1  0  0  0
 32 37  1  0  0  0
 32 33  2  0  0  0
 33 34  1  0  0  0
 33 78  1  0  0  0
 34 35  2  0  0  0
 34 38  1  0  0  0
 35 36  1  0  0  0
 35 79  1  0  0  0
 36 37  2  0  0  0
 36 80  1  0  0  0
 37 81  1  0  0  0
 38 39  1  0  0  0
 38 40  1  0  0  0
 38 41  1  0  0  0
 39 82  1  0  0  0
 39 83  1  0  0  0
 39 84  1  0  0  0
 40 85  1  0  0  0
 40 86  1  0  0  0
 40 87  1  0  0  0
 41 88  1  0  0  0
 41 89  1  0  0  0
 41 90  1  0  0  0
M  CHG  1  28   1
M  END
> <s_m_source_file>
BACE_75.smi

> <i_m_source_file_index>
1

> <i_lp_mmshare_version>
42013

> <i_f3d_flags>
0

> <s_epik_input>
W2NIXTFbY0hdW2NIXWMoQyhbQ0gzXSkoW0NIM10pW0NIM10pW2NIXWMxQzIoW0NIMl1bQ0gyXTIpW05IXVtDSDJdW0NAQEhdKFtPSF0pW0NAQEhdKFtOSF1DKD1PKWMoW2NIXTMpW2NIXWMoW2NIXWMzNClbQ0gyXU9bQ0gzXSlbQ0gyXVtDQEhdKFtDSDNdKVtDSDJdW0NIMl1PW0NIMl0vW0NIXT1bQ0hdL1tDSDJdW05IXTQ=

> <s_epik_cmdline>
J2VwaWtfcHl0aG9uJywgJy1waCcsICc3LjAnLCAnLXRuJywgJzgnLCAnLW1hJywgJzIwMCcsICctaW1hZScsICc8aW5maWxlLm1hZT4nLCAnLW9tYWUnLCAnPG91dGZpbGUubWFlPic=

> <r_epik_Ionization_Penalty>
0.466865

> <r_epik_Ionization_Penalty_Charging>
0.46678

> <r_epik_Ionization_Penalty_Neutral>
8.43451e-05

> <r_epik_State_Penalty>
0.470717

> <r_epik_Charging_Adjusted_Penalty>
0.937497

> <i_epik_Tot_Q>
1

> <i_epik_Tot_abs_Q>
1

> <s_lp_Force_Field>
OPLS_2005

> <r_lp_Energy>
37.8696

> <b_lp_Chiralities_Consistent>
1

> <s_lp_Variant>
BACE_75.smi:1-2

$$$$
