BACE_99.smi:1
                    3D
 Structure written by MMmdl.
 82 85  0  0  1  0            999 V2000
   -8.6497   -0.0884   -1.4332 C   0  0  0  0  0  0
   -7.2790   -0.4645   -1.5134 O   0  0  0  0  0  0
   -6.3226    0.5240   -1.4047 C   0  0  0  0  0  0
   -4.9660    0.1616   -1.4758 C   0  0  0  0  0  0
   -3.9857    1.1674   -1.3565 C   0  0  0  0  0  0
   -4.4120    2.5049   -1.1882 C   0  0  0  0  0  0
   -5.7992    2.7922   -1.1304 C   0  0  0  0  0  0
   -6.7231    1.8063   -1.2353 N   0  0  0  0  0  0
   -6.2885    4.1114   -0.9721 N   0  0  0  0  0  0
   -7.6999    4.3007   -0.6464 C   0  0  0  0  0  0
   -5.3798    5.2411   -0.7963 C   0  0  0  0  0  0
   -4.9122    5.3971    0.6617 C   0  0  0  0  0  0
   -4.0931    6.6768    0.8972 C   0  0  0  0  0  0
   -2.6906    6.6754    0.2588 C   0  0  0  0  0  0
   -1.7415    5.6380    0.8383 C   0  0  0  0  0  0
   -1.4279    5.6558    2.2140 C   0  0  0  0  0  0
   -0.5161    4.7252    2.7455 C   0  0  0  0  0  0
    0.0962    3.7793    1.9028 C   0  0  0  0  0  0
   -0.2124    3.7474    0.5271 C   0  0  0  0  0  0
    0.4901    2.7532   -0.3886 C   0  0  0  0  0  0
   -0.2462    1.4094   -0.6406 C   0  0  2  0  0  0
   -1.6968    1.5816   -0.7293 N   0  0  0  0  0  0
   -2.5297    0.8149   -1.4525 C   0  0  0  0  0  0
   -2.1572   -0.1567   -2.1113 O   0  0  0  0  0  0
    0.1131    0.2458    0.3247 C   0  0  2  0  0  0
   -0.1135    0.6252    1.6671 O   0  0  0  0  0  0
    1.5767   -0.2184    0.1987 C   0  0  0  0  0  0
    1.7897   -1.5081    0.8905 N   0  3  0  0  0  0
    3.1879   -1.9869    0.9095 C   0  0  0  0  0  0
    3.6863   -2.3619   -0.4747 C   0  0  0  0  0  0
    4.5012   -1.4698   -1.2018 C   0  0  0  0  0  0
    4.9607   -1.8201   -2.4850 C   0  0  0  0  0  0
    4.6090   -3.0629   -3.0449 C   0  0  0  0  0  0
    3.7934   -3.9641   -2.3257 C   0  0  0  0  0  0
    3.3360   -3.6067   -1.0387 C   0  0  0  0  0  0
    3.4103   -5.3122   -2.9240 C   0  0  0  0  0  0
    4.6393   -6.2143   -3.1150 C   0  0  0  0  0  0
    2.6174   -5.1519   -4.2309 C   0  0  0  0  0  0
   -1.1341    4.6787   -0.0006 C   0  0  0  0  0  0
    0.0906    1.0825   -1.6266 H   0  0  0  0  0  0
   -0.5313   -0.6069    0.1059 H   0  0  0  0  0  0
   -9.2739   -0.9757   -1.5353 H   0  0  0  0  0  0
   -8.9220    0.6014   -2.2334 H   0  0  0  0  0  0
   -8.8818    0.3704   -0.4710 H   0  0  0  0  0  0
   -4.6900   -0.8736   -1.6167 H   0  0  0  0  0  0
   -3.6735    3.2872   -1.1090 H   0  0  0  0  0  0
   -7.9682    3.7376    0.2481 H   0  0  0  0  0  0
   -8.3321    3.9675   -1.4702 H   0  0  0  0  0  0
   -7.9250    5.3509   -0.4587 H   0  0  0  0  0  0
   -4.5363    5.1672   -1.4812 H   0  0  0  0  0  0
   -5.9085    6.1458   -1.0984 H   0  0  0  0  0  0
   -5.7890    5.4316    1.3095 H   0  0  0  0  0  0
   -4.3431    4.5219    0.9766 H   0  0  0  0  0  0
   -4.6556    7.5288    0.5142 H   0  0  0  0  0  0
   -4.0033    6.8485    1.9701 H   0  0  0  0  0  0
   -2.7707    6.5427   -0.8204 H   0  0  0  0  0  0
   -2.2333    7.6547    0.4031 H   0  0  0  0  0  0
   -1.8757    6.3911    2.8660 H   0  0  0  0  0  0
   -0.2745    4.7469    3.7980 H   0  0  0  0  0  0
    0.8124    3.0850    2.3166 H   0  0  0  0  0  0
    0.6191    3.2533   -1.3496 H   0  0  0  0  0  0
    1.5037    2.5847   -0.0263 H   0  0  0  0  0  0
   -2.0972    2.3461   -0.2042 H   0  0  0  0  0  0
   -1.0146    0.8989    1.7546 H   0  0  0  0  0  0
    1.8293   -0.3442   -0.8545 H   0  0  0  0  0  0
    2.2597    0.5282    0.6053 H   0  0  0  0  0  0
    1.4879   -1.3937    1.8478 H   0  0  0  0  0  0
    3.8336   -1.2287    1.3552 H   0  0  0  0  0  0
    3.2455   -2.8635    1.5556 H   0  0  0  0  0  0
    4.7756   -0.5143   -0.7789 H   0  0  0  0  0  0
    5.5853   -1.1359   -3.0402 H   0  0  0  0  0  0
    4.9703   -3.3212   -4.0295 H   0  0  0  0  0  0
    2.7130   -4.2891   -0.4790 H   0  0  0  0  0  0
    2.7525   -5.8148   -2.2135 H   0  0  0  0  0  0
    5.1635   -6.3672   -2.1709 H   0  0  0  0  0  0
    5.3482   -5.7844   -3.8235 H   0  0  0  0  0  0
    4.3499   -7.1954   -3.4926 H   0  0  0  0  0  0
    1.7226   -4.5484   -4.0752 H   0  0  0  0  0  0
    2.2972   -6.1209   -4.6145 H   0  0  0  0  0  0
    3.2125   -4.6721   -5.0084 H   0  0  0  0  0  0
   -1.3608    4.6671   -1.0570 H   0  0  0  0  0  0
    1.2118   -2.2118    0.4537 H   0  0  0  0  0  0
  1  2  1  0  0  0
  1 42  1  0  0  0
  1 43  1  0  0  0
  1 44  1  0  0  0
  2  3  1  0  0  0
  3  8  1  0  0  0
  3  4  2  0  0  0
  4  5  1  0  0  0
  4 45  1  0  0  0
  5 23  1  0  0  0
  5  6  2  0  0  0
  6  7  1  0  0  0
  6 46  1  0  0  0
  7  8  2  0  0  0
  7  9  1  0  0  0
  9 10  1  0  0  0
  9 11  1  0  0  0
 10 47  1  0  0  0
 10 48  1  0  0  0
 10 49  1  0  0  0
 11 12  1  0  0  0
 11 50  1  0  0  0
 11 51  1  0  0  0
 12 13  1  0  0  0
 12 52  1  0  0  0
 12 53  1  0  0  0
 13 14  1  0  0  0
 13 54  1  0  0  0
 13 55  1  0  0  0
 14 15  1  0  0  0
 14 56  1  0  0  0
 14 57  1  0  0  0
 15 39  1  0  0  0
 15 16  2  0  0  0
 16 17  1  0  0  0
 16 58  1  0  0  0
 17 18  2  0  0  0
 17 59  1  0  0  0
 18 19  1  0  0  0
 18 60  1  0  0  0
 19 20  1  0  0  0
 19 39  2  0  0  0
 20 21  1  0  0  0
 20 61  1  0  0  0
 20 62  1  0  0  0
 21 40  1  0  0  0
 21 22  1  0  0  0
 21 25  1  0  0  0
 22 23  1  0  0  0
 22 63  1  0  0  0
 23 24  2  0  0  0
 25 41  1  0  0  0
 25 26  1  0  0  0
 25 27  1  0  0  0
 26 64  1  0  0  0
 27 28  1  0  0  0
 27 65  1  0  0  0
 27 66  1  0  0  0
 28 29  1  0  0  0
 28 67  1  0  0  0
 28 82  1  0  0  0
 29 30  1  0  0  0
 29 68  1  0  0  0
 29 69  1  0  0  0
 30 35  1  0  0  0
 30 31  2  0  0  0
 31 32  1  0  0  0
 31 70  1  0  0  0
 32 33  2  0  0  0
 32 71  1  0  0  0
 33 34  1  0  0  0
 33 72  1  0  0  0
 34 35  2  0  0  0
 34 36  1  0  0  0
 35 73  1  0  0  0
 36 37  1  0  0  0
 36 38  1  0  0  0
 36 74  1  0  0  0
 37 75  1  0  0  0
 37 76  1  0  0  0
 37 77  1  0  0  0
 38 78  1  0  0  0
 38 79  1  0  0  0
 38 80  1  0  0  0
 39 81  1  0  0  0
M  CHG  1  28   1
M  END
> <s_m_source_file>
BACE_99.smi

> <i_m_source_file_index>
1

> <i_lp_mmshare_version>
42013

> <i_f3d_flags>
0

> <s_epik_input>
W0NIM11PYyhbY0hdYzEyKW5jKFtjSF0xKU4oW0NIM10pW0NIMl1bQ0gyXVtDSDJdW0NIMl1jM1tjSF1bY0hdW2NIXWMoW2NIXTMpW0NIMl1bQ0BIXShbTkhdQzI9TylbQ0BIXShbT0hdKVtDSDJdW05IXVtDSDJdYzRbY0hdW2NIXVtjSF1jKFtjSF00KVtDSF0oW0NIM10pW0NIM10=

> <s_epik_cmdline>
J2VwaWtfcHl0aG9uJywgJy1waCcsICc3LjAnLCAnLXRuJywgJzgnLCAnLW1hJywgJzIwMCcsICctaW1hZScsICc8aW5maWxlLm1hZT4nLCAnLW9tYWUnLCAnPG91dGZpbGUubWFlPic=

> <r_lp_tautomer_probability>
1

> <r_epik_Ionization_Penalty>
0.0200971

> <r_epik_Ionization_Penalty_Charging>
0.0200546

> <r_epik_Ionization_Penalty_Neutral>
4.24656e-05

> <r_epik_State_Penalty>
0.0160525

> <r_epik_Charging_Adjusted_Penalty>
0.0361071

> <i_epik_Tot_Q>
1

> <i_epik_Tot_abs_Q>
1

> <s_lp_Force_Field>
OPLS_2005

> <r_lp_Energy>
26.5224

> <b_lp_Chiralities_Consistent>
1

> <s_lp_Variant>
BACE_99.smi:1-1

$$$$
BACE_99.smi:1
                    3D
 Structure written by MMmdl.
 81 84  0  0  1  0            999 V2000
   -8.3228   -0.5083   -0.9755 C   0  0  0  0  0  0
   -6.9282   -0.7879   -0.9146 O   0  0  0  0  0  0
   -6.0482    0.2748   -0.8994 C   0  0  0  0  0  0
   -4.6687    0.0082   -0.8505 C   0  0  0  0  0  0
   -3.7665    1.0911   -0.8273 C   0  0  0  0  0  0
   -4.2899    2.4032   -0.8717 C   0  0  0  0  0  0
   -5.6940    2.5909   -0.9249 C   0  0  0  0  0  0
   -6.5431    1.5348   -0.9340 N   0  0  0  0  0  0
   -6.2780    3.8786   -0.9818 N   0  0  0  0  0  0
   -7.7055    4.0150   -0.7053 C   0  0  0  0  0  0
   -5.4561    5.0850   -1.0141 C   0  0  0  0  0  0
   -5.0576    5.5602    0.3941 C   0  0  0  0  0  0
   -4.3158    6.9068    0.3856 C   0  0  0  0  0  0
   -2.8825    6.8512   -0.1781 C   0  0  0  0  0  0
   -1.9205    6.0050    0.6418 C   0  0  0  0  0  0
   -1.7090    6.2939    2.0068 C   0  0  0  0  0  0
   -0.7907    5.5374    2.7577 C   0  0  0  0  0  0
   -0.0692    4.4961    2.1456 C   0  0  0  0  0  0
   -0.2730    4.1945    0.7827 C   0  0  0  0  0  0
    0.5501    3.1008    0.1121 C   0  0  0  0  0  0
   -0.1006    1.6921    0.0337 C   0  0  2  0  0  0
   -1.5512    1.7510   -0.1469 N   0  0  0  0  0  0
   -2.2874    0.8388   -0.8038 C   0  0  0  0  0  0
   -1.8143   -0.1771   -1.3142 O   0  0  0  0  0  0
    0.2706    0.7092    1.1812 C   0  0  2  0  0  0
    0.0959    1.3362    2.4339 O   0  0  0  0  0  0
    1.7249    0.2042    1.1220 C   0  0  0  0  0  0
    1.9245   -0.7178    0.0050 N   0  0  0  0  0  0
    3.2966   -1.1981   -0.1387 C   0  0  0  0  0  0
    3.7043   -2.1791    0.9458 C   0  0  0  0  0  0
    3.0024   -3.3914    1.1088 C   0  0  0  0  0  0
    3.3833   -4.2973    2.1165 C   0  0  0  0  0  0
    4.4684   -3.9966    2.9617 C   0  0  0  0  0  0
    5.1802   -2.7868    2.8050 C   0  0  0  0  0  0
    4.7911   -1.8814    1.7941 C   0  0  0  0  0  0
    6.3571   -2.4538    3.7135 C   0  0  0  0  0  0
    7.4960   -3.4750    3.5645 C   0  0  0  0  0  0
    5.9173   -2.3041    5.1782 C   0  0  0  0  0  0
   -1.2017    4.9521    0.0351 C   0  0  0  0  0  0
    0.3022    1.2498   -0.8790 H   0  0  0  0  0  0
   -0.3888   -0.1599    1.1631 H   0  0  0  0  0  0
   -8.8789   -1.4456   -0.9815 H   0  0  0  0  0  0
   -8.5807    0.0354   -1.8857 H   0  0  0  0  0  0
   -8.6533    0.0666   -0.1091 H   0  0  0  0  0  0
   -4.3153   -1.0129   -0.8287 H   0  0  0  0  0  0
   -3.6111    3.2418   -0.8662 H   0  0  0  0  0  0
   -7.9635    3.5358    0.2399 H   0  0  0  0  0  0
   -8.2950    3.5570   -1.5004 H   0  0  0  0  0  0
   -7.9950    5.0639   -0.6363 H   0  0  0  0  0  0
   -4.5832    4.9399   -1.6490 H   0  0  0  0  0  0
   -6.0337    5.8697   -1.5041 H   0  0  0  0  0  0
   -5.9614    5.6743    0.9940 H   0  0  0  0  0  0
   -4.4585    4.8021    0.8991 H   0  0  0  0  0  0
   -4.8972    7.6259   -0.1922 H   0  0  0  0  0  0
   -4.2922    7.3039    1.4005 H   0  0  0  0  0  0
   -2.9004    6.4960   -1.2087 H   0  0  0  0  0  0
   -2.4769    7.8624   -0.2205 H   0  0  0  0  0  0
   -2.2413    7.1044    2.4826 H   0  0  0  0  0  0
   -0.6283    5.7663    3.8005 H   0  0  0  0  0  0
    0.6515    3.9384    2.7254 H   0  0  0  0  0  0
    0.7464    3.4411   -0.9057 H   0  0  0  0  0  0
    1.5320    3.0498    0.5826 H   0  0  0  0  0  0
   -2.0296    2.5419    0.2601 H   0  0  0  0  0  0
   -0.8082    1.6003    2.5125 H   0  0  0  0  0  0
    2.4172    1.0427    1.0501 H   0  0  0  0  0  0
    1.9635   -0.3083    2.0551 H   0  0  0  0  0  0
    1.6140   -0.2921   -0.8625 H   0  0  0  0  0  0
    3.3982   -1.7127   -1.0945 H   0  0  0  0  0  0
    3.9923   -0.3588   -0.1708 H   0  0  0  0  0  0
    2.1687   -3.6267    0.4631 H   0  0  0  0  0  0
    2.8432   -5.2243    2.2410 H   0  0  0  0  0  0
    4.7514   -4.6998    3.7310 H   0  0  0  0  0  0
    5.3266   -0.9518    1.6679 H   0  0  0  0  0  0
    6.7538   -1.4876    3.3990 H   0  0  0  0  0  0
    7.8330   -3.5370    2.5293 H   0  0  0  0  0  0
    7.1863   -4.4733    3.8746 H   0  0  0  0  0  0
    8.3558   -3.1935    4.1730 H   0  0  0  0  0  0
    5.1474   -1.5388    5.2789 H   0  0  0  0  0  0
    6.7557   -2.0117    5.8109 H   0  0  0  0  0  0
    5.5144   -3.2365    5.5748 H   0  0  0  0  0  0
   -1.3487    4.7339   -1.0128 H   0  0  0  0  0  0
  1  2  1  0  0  0
  1 42  1  0  0  0
  1 43  1  0  0  0
  1 44  1  0  0  0
  2  3  1  0  0  0
  3  8  1  0  0  0
  3  4  2  0  0  0
  4  5  1  0  0  0
  4 45  1  0  0  0
  5 23  1  0  0  0
  5  6  2  0  0  0
  6  7  1  0  0  0
  6 46  1  0  0  0
  7  8  2  0  0  0
  7  9  1  0  0  0
  9 10  1  0  0  0
  9 11  1  0  0  0
 10 47  1  0  0  0
 10 48  1  0  0  0
 10 49  1  0  0  0
 11 12  1  0  0  0
 11 50  1  0  0  0
 11 51  1  0  0  0
 12 13  1  0  0  0
 12 52  1  0  0  0
 12 53  1  0  0  0
 13 14  1  0  0  0
 13 54  1  0  0  0
 13 55  1  0  0  0
 14 15  1  0  0  0
 14 56  1  0  0  0
 14 57  1  0  0  0
 15 39  1  0  0  0
 15 16  2  0  0  0
 16 17  1  0  0  0
 16 58  1  0  0  0
 17 18  2  0  0  0
 17 59  1  0  0  0
 18 19  1  0  0  0
 18 60  1  0  0  0
 19 20  1  0  0  0
 19 39  2  0  0  0
 20 21  1  0  0  0
 20 61  1  0  0  0
 20 62  1  0  0  0
 21 40  1  0  0  0
 21 22  1  0  0  0
 21 25  1  0  0  0
 22 23  1  0  0  0
 22 63  1  0  0  0
 23 24  2  0  0  0
 25 41  1  0  0  0
 25 26  1  0  0  0
 25 27  1  0  0  0
 26 64  1  0  0  0
 27 28  1  0  0  0
 27 65  1  0  0  0
 27 66  1  0  0  0
 28 29  1  0  0  0
 28 67  1  0  0  0
 29 30  1  0  0  0
 29 68  1  0  0  0
 29 69  1  0  0  0
 30 35  1  0  0  0
 30 31  2  0  0  0
 31 32  1  0  0  0
 31 70  1  0  0  0
 32 33  2  0  0  0
 32 71  1  0  0  0
 33 34  1  0  0  0
 33 72  1  0  0  0
 34 35  2  0  0  0
 34 36  1  0  0  0
 35 73  1  0  0  0
 36 37  1  0  0  0
 36 38  1  0  0  0
 36 74  1  0  0  0
 37 75  1  0  0  0
 37 76  1  0  0  0
 37 77  1  0  0  0
 38 78  1  0  0  0
 38 79  1  0  0  0
 38 80  1  0  0  0
 39 81  1  0  0  0
M  END
> <s_m_source_file>
BACE_99.smi

> <i_m_source_file_index>
1

> <i_lp_mmshare_version>
42013

> <i_f3d_flags>
0

> <s_epik_input>
W0NIM11PYyhbY0hdYzEyKW5jKFtjSF0xKU4oW0NIM10pW0NIMl1bQ0gyXVtDSDJdW0NIMl1jM1tjSF1bY0hdW2NIXWMoW2NIXTMpW0NIMl1bQ0BIXShbTkhdQzI9TylbQ0BIXShbT0hdKVtDSDJdW05IXVtDSDJdYzRbY0hdW2NIXVtjSF1jKFtjSF00KVtDSF0oW0NIM10pW0NIM10=

> <s_epik_cmdline>
J2VwaWtfcHl0aG9uJywgJy1waCcsICc3LjAnLCAnLXRuJywgJzgnLCAnLW1hJywgJzIwMCcsICctaW1hZScsICc8aW5maWxlLm1hZT4nLCAnLW9tYWUnLCAnPG91dGZpbGUubWFlPic=

> <r_lp_tautomer_probability>
1

> <r_epik_Ionization_Penalty>
2.01613

> <r_epik_Ionization_Penalty_Charging>
0

> <r_epik_Ionization_Penalty_Neutral>
2.01613

> <r_epik_State_Penalty>
2.14597

> <r_epik_Charging_Adjusted_Penalty>
2.14597

> <i_epik_Tot_Q>
0

> <i_epik_Tot_abs_Q>
0

> <s_lp_Force_Field>
OPLS_2005

> <r_lp_Energy>
30.0569

> <b_lp_Chiralities_Consistent>
1

> <s_lp_Variant>
BACE_99.smi:1-2

$$$$
