BACE_39.smi:1
                    3D
 Structure written by MMmdl.
 89 90  0  0  1  0            999 V2000
   -2.0707    1.5342   -1.4356 C   0  0  0  0  0  0
   -0.8511    1.3657   -0.5188 C   0  0  2  0  0  0
   -0.1286    0.1189   -0.8504 N   0  3  0  0  0  0
    1.2782    0.0712   -0.3988 C   0  0  0  0  0  0
    1.8916   -1.3241   -0.6414 C   0  0  1  0  0  0
    1.8476   -1.5567   -2.0376 O   0  0  0  0  0  0
    3.3731   -1.4595   -0.1919 C   0  0  2  0  0  0
    3.9239   -2.9036   -0.3050 C   0  0  0  0  0  0
    5.4141   -2.9589   -0.7173 C   0  0  2  0  0  0
    5.5526   -2.9885   -2.2485 C   0  0  0  0  0  0
    6.1531   -4.1482   -0.0641 C   0  0  0  0  0  0
    6.7699   -3.7895    1.3005 C   0  0  0  0  0  0
    8.1385   -3.0929    1.1597 C   0  0  0  0  0  0
    8.6732   -2.4781    2.4641 C   0  0  0  0  0  0
    8.0086   -1.1349    2.8018 C   0  0  0  0  0  0
    8.5510   -0.4892    4.0857 C   0  0  0  0  0  0
    7.9394    0.8886    4.4136 C   0  0  0  0  0  0
    6.4333    0.8556    4.7359 C   0  0  0  0  0  0
    5.3904    1.5052    3.3471 S   0  0  0  0  0  0
    5.2996    2.9652    3.4951 O   0  0  0  0  0  0
    5.8682    0.9403    2.0763 O   0  0  0  0  0  0
    3.7340    0.7821    3.7272 C   0  0  0  0  0  0
    3.7257   -0.7593    3.5857 C   0  0  1  0  0  0
    3.1523   -1.4425    4.8421 C   0  0  0  0  0  0
    3.0260   -1.2223    2.2987 C   0  0  0  0  0  0
    1.9735   -1.8591    2.3496 O   0  0  0  0  0  0
    3.6611   -0.9341    1.1477 N   0  0  0  0  0  0
   -1.2558    1.3792    0.9342 C   0  0  0  0  0  0
   -1.0092    2.3846    1.9091 C   0  0  0  0  0  0
   -1.5899    1.8886    3.0422 C   0  0  0  0  0  0
   -1.7264    2.4217    4.4343 C   0  0  0  0  0  0
   -0.8449    1.7388    5.5140 C   0  0  0  0  0  0
   -1.4464    0.3775    5.9167 C   0  0  0  0  0  0
   -0.8009    2.6435    6.7604 C   0  0  0  0  0  0
    0.5963    1.5227    5.0113 C   0  0  0  0  0  0
   -2.1368    0.6716    2.7922 O   0  0  0  0  0  0
   -1.9137    0.3516    1.4498 N   0  0  0  0  0  0
   -0.1800    2.2034   -0.7152 H   0  0  0  0  0  0
    1.2811   -2.0833   -0.1511 H   0  0  0  0  0  0
    3.9491   -0.8207   -0.8636 H   0  0  0  0  0  0
    5.9015   -2.0441   -0.3781 H   0  0  0  0  0  0
    4.7496   -1.1173    3.4987 H   0  0  0  0  0  0
   -2.5939    2.4669   -1.2223 H   0  0  0  0  0  0
   -2.7829    0.7178   -1.3096 H   0  0  0  0  0  0
   -1.7733    1.5565   -2.4846 H   0  0  0  0  0  0
   -0.6323   -0.6554   -0.4412 H   0  0  0  0  0  0
    1.8538    0.8384   -0.9189 H   0  0  0  0  0  0
    1.3047    0.3208    0.6614 H   0  0  0  0  0  0
    2.2061   -2.4145   -2.2105 H   0  0  0  0  0  0
    3.7760   -3.4204    0.6443 H   0  0  0  0  0  0
    3.3411   -3.4856   -1.0196 H   0  0  0  0  0  0
    5.1209   -3.8971   -2.6694 H   0  0  0  0  0  0
    6.6002   -2.9484   -2.5488 H   0  0  0  0  0  0
    5.0493   -2.1373   -2.7077 H   0  0  0  0  0  0
    5.4664   -4.9882    0.0474 H   0  0  0  0  0  0
    6.9468   -4.5126   -0.7176 H   0  0  0  0  0  0
    6.0703   -3.1720    1.8643 H   0  0  0  0  0  0
    6.9044   -4.6998    1.8856 H   0  0  0  0  0  0
    8.8586   -3.8267    0.7960 H   0  0  0  0  0  0
    8.0966   -2.3190    0.3926 H   0  0  0  0  0  0
    8.5513   -3.1828    3.2874 H   0  0  0  0  0  0
    9.7466   -2.3159    2.3583 H   0  0  0  0  0  0
    8.1508   -0.4463    1.9681 H   0  0  0  0  0  0
    6.9370   -1.2894    2.9015 H   0  0  0  0  0  0
    8.3935   -1.1649    4.9274 H   0  0  0  0  0  0
    9.6316   -0.3740    3.9924 H   0  0  0  0  0  0
    8.4633    1.2820    5.2855 H   0  0  0  0  0  0
    8.1424    1.5971    3.6100 H   0  0  0  0  0  0
    6.1167   -0.1535    4.9947 H   0  0  0  0  0  0
    6.2213    1.4764    5.6065 H   0  0  0  0  0  0
    3.4798    1.0872    4.7421 H   0  0  0  0  0  0
    3.0050    1.2554    3.0681 H   0  0  0  0  0  0
    3.1726   -2.5293    4.7498 H   0  0  0  0  0  0
    2.1206   -1.1426    5.0282 H   0  0  0  0  0  0
    3.7359   -1.1839    5.7260 H   0  0  0  0  0  0
    4.5069   -0.3861    1.2262 H   0  0  0  0  0  0
   -0.4949    3.3272    1.7953 H   0  0  0  0  0  0
   -1.4798    3.4837    4.4005 H   0  0  0  0  0  0
   -2.7747    2.3838    4.7338 H   0  0  0  0  0  0
   -0.8685   -0.0893    6.7153 H   0  0  0  0  0  0
   -1.4606   -0.3220    5.0811 H   0  0  0  0  0  0
   -2.4709    0.4843    6.2749 H   0  0  0  0  0  0
   -1.8016    2.8245    7.1543 H   0  0  0  0  0  0
   -0.3565    3.6135    6.5347 H   0  0  0  0  0  0
   -0.2108    2.1934    7.5597 H   0  0  0  0  0  0
    1.2293    1.1167    5.8008 H   0  0  0  0  0  0
    1.0461    2.4594    4.6807 H   0  0  0  0  0  0
    0.6375    0.8217    4.1768 H   0  0  0  0  0  0
   -0.1261    0.0059   -1.8541 H   0  0  0  0  0  0
  1  2  1  0  0  0
  1 43  1  0  0  0
  1 44  1  0  0  0
  1 45  1  0  0  0
  2 38  1  0  0  0
  2  3  1  0  0  0
  2 28  1  0  0  0
  3  4  1  0  0  0
  3 46  1  0  0  0
  3 89  1  0  0  0
  4  5  1  0  0  0
  4 47  1  0  0  0
  4 48  1  0  0  0
  5 39  1  0  0  0
  5  6  1  0  0  0
  5  7  1  0  0  0
  6 49  1  0  0  0
  7 40  1  0  0  0
  7 27  1  0  0  0
  7  8  1  0  0  0
  8  9  1  0  0  0
  8 50  1  0  0  0
  8 51  1  0  0  0
  9 41  1  0  0  0
  9 10  1  0  0  0
  9 11  1  0  0  0
 10 52  1  0  0  0
 10 53  1  0  0  0
 10 54  1  0  0  0
 11 12  1  0  0  0
 11 55  1  0  0  0
 11 56  1  0  0  0
 12 13  1  0  0  0
 12 57  1  0  0  0
 12 58  1  0  0  0
 13 14  1  0  0  0
 13 59  1  0  0  0
 13 60  1  0  0  0
 14 15  1  0  0  0
 14 61  1  0  0  0
 14 62  1  0  0  0
 15 16  1  0  0  0
 15 63  1  0  0  0
 15 64  1  0  0  0
 16 17  1  0  0  0
 16 65  1  0  0  0
 16 66  1  0  0  0
 17 18  1  0  0  0
 17 67  1  0  0  0
 17 68  1  0  0  0
 18 19  1  0  0  0
 18 69  1  0  0  0
 18 70  1  0  0  0
 19 20  2  0  0  0
 19 21  2  0  0  0
 19 22  1  0  0  0
 22 23  1  0  0  0
 22 71  1  0  0  0
 22 72  1  0  0  0
 23 42  1  0  0  0
 23 24  1  0  0  0
 23 25  1  0  0  0
 24 73  1  0  0  0
 24 74  1  0  0  0
 24 75  1  0  0  0
 25 26  2  0  0  0
 25 27  1  0  0  0
 27 76  1  0  0  0
 28 37  2  0  0  0
 28 29  1  0  0  0
 29 30  2  0  0  0
 29 77  1  0  0  0
 30 31  1  0  0  0
 30 36  1  0  0  0
 31 32  1  0  0  0
 31 78  1  0  0  0
 31 79  1  0  0  0
 32 33  1  0  0  0
 32 34  1  0  0  0
 32 35  1  0  0  0
 33 80  1  0  0  0
 33 81  1  0  0  0
 33 82  1  0  0  0
 34 83  1  0  0  0
 34 84  1  0  0  0
 34 85  1  0  0  0
 35 86  1  0  0  0
 35 87  1  0  0  0
 35 88  1  0  0  0
 36 37  1  0  0  0
M  CHG  1   3   1
M  END
> <s_m_source_file>
BACE_39.smi

> <i_m_source_file_index>
1

> <i_lp_mmshare_version>
42013

> <i_f3d_flags>
0

> <s_epik_input>
W0NIM11DKFtDSDNdKShbQ0gzXSlbQ0gyXWMob24xKVtjSF1jMVtDQEhdKFtDSDNdKVtOSF1bQ0gyXVtDQEBIXShbT0hdKVtDQEBIXShbTkhdQyg9TylbQ0BASF0oW0NIMl0yKVtDSDNdKVtDSDJdW0NASF0oW0NIM10pW0NIMl1bQ0gyXVtDSDJdW0NIMl1bQ0gyXVtDSDJdW0NIMl1bQ0gyXVMyKD1PKT1P

> <s_epik_cmdline>
J2VwaWtfcHl0aG9uJywgJy1waCcsICc3LjAnLCAnLXRuJywgJzgnLCAnLW1hJywgJzIwMCcsICctaW1hZScsICc8aW5maWxlLm1hZT4nLCAnLW9tYWUnLCAnPG91dGZpbGUubWFlPic=

> <r_epik_Ionization_Penalty>
0.389063

> <r_epik_Ionization_Penalty_Charging>
0.389062

> <r_epik_Ionization_Penalty_Neutral>
6.27809e-07

> <r_epik_State_Penalty>
0.387641

> <r_epik_Charging_Adjusted_Penalty>
0.776703

> <i_epik_Tot_Q>
1

> <i_epik_Tot_abs_Q>
1

> <s_lp_Force_Field>
OPLS_2005

> <r_lp_Energy>
13.0449

> <b_lp_Chiralities_Consistent>
1

> <s_lp_Variant>
BACE_39.smi:1-1

$$$$
BACE_39.smi:1
                    3D
 Structure written by MMmdl.
 88 89  0  0  1  0            999 V2000
   -0.0137    2.2847   -1.8058 C   0  0  0  0  0  0
   -0.3113    1.3547   -0.6160 C   0  0  2  0  0  0
    0.2902    0.0301   -0.7955 N   0  0  0  0  0  0
    1.7466    0.0022   -0.6610 C   0  0  0  0  0  0
    2.2937   -1.4305   -0.8364 C   0  0  1  0  0  0
    2.2281   -1.7165   -2.2212 O   0  0  0  0  0  0
    3.7756   -1.5911   -0.3935 C   0  0  2  0  0  0
    4.3070   -3.0445   -0.4837 C   0  0  0  0  0  0
    5.8082   -3.1217   -0.8567 C   0  0  2  0  0  0
    5.9804   -3.2847   -2.3756 C   0  0  0  0  0  0
    6.5527   -4.2328   -0.0824 C   0  0  0  0  0  0
    7.1482   -3.7368    1.2486 C   0  0  0  0  0  0
    8.4994   -3.0167    1.0579 C   0  0  0  0  0  0
    9.0247   -2.3127    2.3208 C   0  0  0  0  0  0
    8.3262   -0.9706    2.5889 C   0  0  0  0  0  0
    8.8448   -0.2527    3.8443 C   0  0  0  0  0  0
    8.1807    1.1115    4.1253 C   0  0  0  0  0  0
    6.6804    1.0330    4.4683 C   0  0  0  0  0  0
    5.5969    1.5798    3.0656 S   0  0  0  0  0  0
    5.4146    3.0345    3.1782 O   0  0  0  0  0  0
    6.1136    1.0163    1.8096 O   0  0  0  0  0  0
    3.9861    0.7627    3.4611 C   0  0  0  0  0  0
    4.0799   -0.7802    3.3726 C   0  0  1  0  0  0
    3.5297   -1.4541    4.6443 C   0  0  0  0  0  0
    3.4328   -1.3322    2.0929 C   0  0  0  0  0  0
    2.4196   -2.0286    2.1551 O   0  0  0  0  0  0
    4.0666   -1.0494    0.9393 N   0  0  0  0  0  0
   -1.7979    1.2437   -0.3944 C   0  0  0  0  0  0
   -2.7102    0.2795   -0.9090 C   0  0  0  0  0  0
   -3.9182    0.6727   -0.4073 C   0  0  0  0  0  0
   -5.3031    0.1200   -0.5406 C   0  0  0  0  0  0
   -5.8460   -0.6547    0.6894 C   0  0  0  0  0  0
   -4.8281   -1.7058    1.1799 C   0  0  0  0  0  0
   -7.1448   -1.3765    0.2810 C   0  0  0  0  0  0
   -6.1663    0.3169    1.8432 C   0  0  0  0  0  0
   -3.7681    1.7915    0.3469 O   0  0  0  0  0  0
   -2.4159    2.1497    0.3463 N   0  0  0  0  0  0
    0.1235    1.8094    0.2757 H   0  0  0  0  0  0
    1.6637   -2.1442   -0.3046 H   0  0  0  0  0  0
    4.3588   -0.9735   -1.0785 H   0  0  0  0  0  0
    6.2788   -2.1733   -0.5954 H   0  0  0  0  0  0
    5.1245   -1.0759    3.3138 H   0  0  0  0  0  0
   -0.4641    3.2659   -1.6522 H   0  0  0  0  0  0
   -0.4160    1.8795   -2.7350 H   0  0  0  0  0  0
    1.0546    2.4458   -1.9456 H   0  0  0  0  0  0
    0.0683   -0.3013   -1.7291 H   0  0  0  0  0  0
    2.2250    0.6653   -1.3814 H   0  0  0  0  0  0
    2.0066    0.3865    0.3245 H   0  0  0  0  0  0
    2.5196   -2.6051   -2.3567 H   0  0  0  0  0  0
    4.1239   -3.5550    0.4627 H   0  0  0  0  0  0
    3.7333   -3.6200   -1.2106 H   0  0  0  0  0  0
    5.5677   -4.2325   -2.7230 H   0  0  0  0  0  0
    7.0334   -3.2569   -2.6573 H   0  0  0  0  0  0
    5.4761   -2.4830   -2.9159 H   0  0  0  0  0  0
    5.8760   -5.0683    0.1010 H   0  0  0  0  0  0
    7.3596   -4.6469   -0.6886 H   0  0  0  0  0  0
    6.4268   -3.0918    1.7507 H   0  0  0  0  0  0
    7.3012   -4.5884    1.9123 H   0  0  0  0  0  0
    9.2359   -3.7535    0.7353 H   0  0  0  0  0  0
    8.4363   -2.2912    0.2465 H   0  0  0  0  0  0
    8.9256   -2.9731    3.1830 H   0  0  0  0  0  0
   10.0928   -2.1287    2.1994 H   0  0  0  0  0  0
    8.4538   -0.3191    1.7237 H   0  0  0  0  0  0
    7.2591   -1.1480    2.6912 H   0  0  0  0  0  0
    8.7183   -0.9011    4.7121 H   0  0  0  0  0  0
    9.9194   -0.0984    3.7405 H   0  0  0  0  0  0
    8.6972    1.5578    4.9759 H   0  0  0  0  0  0
    8.3483    1.7965    3.2933 H   0  0  0  0  0  0
    6.4078    0.0250    4.7760 H   0  0  0  0  0  0
    6.4530    1.6827    5.3136 H   0  0  0  0  0  0
    3.6961    1.0859    4.4610 H   0  0  0  0  0  0
    3.2342    1.1622    2.7788 H   0  0  0  0  0  0
    3.5885   -2.5415    4.5791 H   0  0  0  0  0  0
    2.4876   -1.1843    4.8209 H   0  0  0  0  0  0
    4.1022   -1.1528    5.5220 H   0  0  0  0  0  0
    4.8823   -0.4559    1.0020 H   0  0  0  0  0  0
   -2.5092   -0.5693   -1.5455 H   0  0  0  0  0  0
   -5.9870    0.9306   -0.7956 H   0  0  0  0  0  0
   -5.3116   -0.5436   -1.4063 H   0  0  0  0  0  0
   -5.2374   -2.3016    1.9967 H   0  0  0  0  0  0
   -3.9116   -1.2438    1.5488 H   0  0  0  0  0  0
   -4.5522   -2.3934    0.3794 H   0  0  0  0  0  0
   -6.9678   -2.0945   -0.5209 H   0  0  0  0  0  0
   -7.8974   -0.6699   -0.0716 H   0  0  0  0  0  0
   -7.5774   -1.9241    1.1192 H   0  0  0  0  0  0
   -6.6195   -0.2061    2.6862 H   0  0  0  0  0  0
   -6.8629    1.0943    1.5279 H   0  0  0  0  0  0
   -5.2696    0.8104    2.2182 H   0  0  0  0  0  0
  1  2  1  0  0  0
  1 43  1  0  0  0
  1 44  1  0  0  0
  1 45  1  0  0  0
  2 38  1  0  0  0
  2  3  1  0  0  0
  2 28  1  0  0  0
  3  4  1  0  0  0
  3 46  1  0  0  0
  4  5  1  0  0  0
  4 47  1  0  0  0
  4 48  1  0  0  0
  5 39  1  0  0  0
  5  6  1  0  0  0
  5  7  1  0  0  0
  6 49  1  0  0  0
  7 40  1  0  0  0
  7 27  1  0  0  0
  7  8  1  0  0  0
  8  9  1  0  0  0
  8 50  1  0  0  0
  8 51  1  0  0  0
  9 41  1  0  0  0
  9 10  1  0  0  0
  9 11  1  0  0  0
 10 52  1  0  0  0
 10 53  1  0  0  0
 10 54  1  0  0  0
 11 12  1  0  0  0
 11 55  1  0  0  0
 11 56  1  0  0  0
 12 13  1  0  0  0
 12 57  1  0  0  0
 12 58  1  0  0  0
 13 14  1  0  0  0
 13 59  1  0  0  0
 13 60  1  0  0  0
 14 15  1  0  0  0
 14 61  1  0  0  0
 14 62  1  0  0  0
 15 16  1  0  0  0
 15 63  1  0  0  0
 15 64  1  0  0  0
 16 17  1  0  0  0
 16 65  1  0  0  0
 16 66  1  0  0  0
 17 18  1  0  0  0
 17 67  1  0  0  0
 17 68  1  0  0  0
 18 19  1  0  0  0
 18 69  1  0  0  0
 18 70  1  0  0  0
 19 20  2  0  0  0
 19 21  2  0  0  0
 19 22  1  0  0  0
 22 23  1  0  0  0
 22 71  1  0  0  0
 22 72  1  0  0  0
 23 42  1  0  0  0
 23 24  1  0  0  0
 23 25  1  0  0  0
 24 73  1  0  0  0
 24 74  1  0  0  0
 24 75  1  0  0  0
 25 26  2  0  0  0
 25 27  1  0  0  0
 27 76  1  0  0  0
 28 37  2  0  0  0
 28 29  1  0  0  0
 29 30  2  0  0  0
 29 77  1  0  0  0
 30 31  1  0  0  0
 30 36  1  0  0  0
 31 32  1  0  0  0
 31 78  1  0  0  0
 31 79  1  0  0  0
 32 33  1  0  0  0
 32 34  1  0  0  0
 32 35  1  0  0  0
 33 80  1  0  0  0
 33 81  1  0  0  0
 33 82  1  0  0  0
 34 83  1  0  0  0
 34 84  1  0  0  0
 34 85  1  0  0  0
 35 86  1  0  0  0
 35 87  1  0  0  0
 35 88  1  0  0  0
 36 37  1  0  0  0
M  END
> <s_m_source_file>
BACE_39.smi

> <i_m_source_file_index>
1

> <i_lp_mmshare_version>
42013

> <i_f3d_flags>
0

> <s_epik_input>
W0NIM11DKFtDSDNdKShbQ0gzXSlbQ0gyXWMob24xKVtjSF1jMVtDQEhdKFtDSDNdKVtOSF1bQ0gyXVtDQEBIXShbT0hdKVtDQEBIXShbTkhdQyg9TylbQ0BASF0oW0NIMl0yKVtDSDNdKVtDSDJdW0NASF0oW0NIM10pW0NIMl1bQ0gyXVtDSDJdW0NIMl1bQ0gyXVtDSDJdW0NIMl1bQ0gyXVMyKD1PKT1P

> <s_epik_cmdline>
J2VwaWtfcHl0aG9uJywgJy1waCcsICc3LjAnLCAnLXRuJywgJzgnLCAnLW1hJywgJzIwMCcsICctaW1hZScsICc8aW5maWxlLm1hZT4nLCAnLW9tYWUnLCAnPG91dGZpbGUubWFlPic=

> <r_epik_Ionization_Penalty>
0.433117

> <r_epik_Ionization_Penalty_Charging>
0

> <r_epik_Ionization_Penalty_Neutral>
0.433117

> <r_epik_State_Penalty>
0.434651

> <r_epik_Charging_Adjusted_Penalty>
0.434651

> <i_epik_Tot_Q>
0

> <i_epik_Tot_abs_Q>
0

> <s_lp_Force_Field>
OPLS_2005

> <r_lp_Energy>
25.2403

> <b_lp_Chiralities_Consistent>
1

> <s_lp_Variant>
BACE_39.smi:1-2

$$$$
