BACE_128.smi:1
                    3D
 Structure written by MMmdl.
 95 99  0  0  1  0            999 V2000
   -6.3076   -5.3541    5.0827 C   0  0  0  0  0  0
   -5.8855   -4.0087    4.9471 O   0  0  0  0  0  0
   -4.7471   -3.8756    4.1120 C   0  0  0  0  0  0
   -4.3080   -2.4293    3.9970 C   0  0  0  0  0  0
   -4.1005   -1.6651    5.1623 C   0  0  0  0  0  0
   -3.7077   -0.3155    5.0659 C   0  0  0  0  0  0
   -3.5005    0.2648    3.7970 C   0  0  0  0  0  0
   -3.6727   -0.5027    2.6208 C   0  0  0  0  0  0
   -4.0891   -1.8479    2.7313 C   0  0  0  0  0  0
   -3.4442    0.0975    1.2630 C   0  0  0  0  0  0
   -4.0762   -0.2928    0.2816 O   0  0  0  0  0  0
   -2.4613    1.0093    1.2015 N   0  0  0  0  0  0
   -1.9683    1.6825   -0.0028 C   0  0  1  0  0  0
   -2.3605    3.1849    0.0191 C   0  0  0  0  0  0
   -2.2791    3.8407    1.3903 C   0  0  0  0  0  0
   -3.4445    3.9926    2.1703 C   0  0  0  0  0  0
   -3.3855    4.5455    3.4649 C   0  0  0  0  0  0
   -2.1306    4.9665    3.9712 C   0  0  0  0  0  0
   -0.9680    4.8396    3.1871 C   0  0  0  0  0  0
   -1.0407    4.2814    1.8979 C   0  0  0  0  0  0
   -4.5776    4.6433    4.1507 O   0  0  0  0  0  0
   -4.5573    4.8120    5.5648 C   0  0  0  0  0  0
   -4.1430    3.5101    6.2733 C   0  0  0  0  0  0
   -5.1249    2.3586    5.9997 C   0  0  0  0  0  0
   -4.7556    1.0504    6.7180 C   0  0  0  0  0  0
   -3.5252    0.4394    6.2291 N   0  0  0  0  0  0
   -0.4421    1.4455   -0.1467 C   0  0  2  0  0  0
   -0.0016    1.9894   -1.3765 O   0  0  0  0  0  0
   -0.0395   -0.0443   -0.1436 C   0  0  0  0  0  0
    1.4270   -0.1976   -0.0688 N   0  3  0  0  0  0
    1.9032   -1.5968   -0.0105 C   0  0  1  0  0  0
    2.6676   -1.9328   -1.3005 C   0  0  0  0  0  0
    3.5861   -3.1604   -1.1422 C   0  0  0  0  0  0
    2.8015   -4.4592   -0.8587 C   0  0  0  0  0  0
    4.4358   -3.3429   -2.4106 C   0  0  0  0  0  0
    4.5180   -2.9243   -0.0853 O   0  0  0  0  0  0
    4.0274   -2.4505    1.1123 C   0  0  0  0  0  0
    4.8277   -2.6049    2.2609 C   0  0  0  0  0  0
    4.3674   -2.1715    3.5181 C   0  0  0  0  0  0
    3.0938   -1.5774    3.6437 C   0  0  0  0  0  0
    2.2978   -1.4055    2.4922 C   0  0  0  0  0  0
    2.7642   -1.8177    1.2243 C   0  0  0  0  0  0
    2.5784   -1.1194    5.0026 C   0  0  0  0  0  0
    3.4415    0.0111    5.5833 C   0  0  0  0  0  0
    2.4448   -2.2935    5.9850 C   0  0  0  0  0  0
   -2.4323    1.2412   -0.8871 H   0  0  0  0  0  0
    0.0795    1.9527    0.6649 H   0  0  0  0  0  0
    1.0543   -2.2764    0.0818 H   0  0  0  0  0  0
   -7.1860   -5.3990    5.7264 H   0  0  0  0  0  0
   -5.5273   -5.9679    5.5341 H   0  0  0  0  0  0
   -6.5764   -5.7827    4.1163 H   0  0  0  0  0  0
   -3.9172   -4.4560    4.5178 H   0  0  0  0  0  0
   -4.9692   -4.2750    3.1209 H   0  0  0  0  0  0
   -4.2607   -2.1133    6.1325 H   0  0  0  0  0  0
   -3.2017    1.3018    3.7363 H   0  0  0  0  0  0
   -4.2379   -2.4426    1.8412 H   0  0  0  0  0  0
   -2.0042    1.2529    2.0687 H   0  0  0  0  0  0
   -1.7715    3.7641   -0.6919 H   0  0  0  0  0  0
   -3.3908    3.2749   -0.3281 H   0  0  0  0  0  0
   -4.3967    3.6589    1.7837 H   0  0  0  0  0  0
   -2.0310    5.3981    4.9545 H   0  0  0  0  0  0
   -0.0169    5.1699    3.5781 H   0  0  0  0  0  0
   -0.1423    4.1852    1.3067 H   0  0  0  0  0  0
   -3.9360    5.6541    5.8676 H   0  0  0  0  0  0
   -5.5678    5.0792    5.8745 H   0  0  0  0  0  0
   -3.1364    3.2217    5.9706 H   0  0  0  0  0  0
   -4.0953    3.6914    7.3474 H   0  0  0  0  0  0
   -6.1178    2.6626    6.3327 H   0  0  0  0  0  0
   -5.2152    2.1849    4.9275 H   0  0  0  0  0  0
   -4.6431    1.2368    7.7862 H   0  0  0  0  0  0
   -5.5762    0.3380    6.6213 H   0  0  0  0  0  0
   -3.0847   -0.0949    6.9646 H   0  0  0  0  0  0
   -0.2290    2.9069   -1.3990 H   0  0  0  0  0  0
   -0.4598   -0.5551    0.7229 H   0  0  0  0  0  0
   -0.4239   -0.5520   -1.0300 H   0  0  0  0  0  0
    1.8408    0.2547   -0.8716 H   0  0  0  0  0  0
    1.9703   -2.0640   -2.1290 H   0  0  0  0  0  0
    3.2976   -1.0822   -1.5669 H   0  0  0  0  0  0
    2.0987   -4.6771   -1.6632 H   0  0  0  0  0  0
    2.2324   -4.4079    0.0692 H   0  0  0  0  0  0
    3.4767   -5.3112   -0.7726 H   0  0  0  0  0  0
    3.8098   -3.5347   -3.2828 H   0  0  0  0  0  0
    5.1254   -4.1814   -2.3073 H   0  0  0  0  0  0
    5.0323   -2.4543   -2.6203 H   0  0  0  0  0  0
    5.7977   -3.0733    2.1798 H   0  0  0  0  0  0
    4.9946   -2.3066    4.3871 H   0  0  0  0  0  0
    1.3242   -0.9461    2.5821 H   0  0  0  0  0  0
    1.5767   -0.7124    4.8574 H   0  0  0  0  0  0
    3.4810    0.8627    4.9034 H   0  0  0  0  0  0
    4.4649   -0.3170    5.7669 H   0  0  0  0  0  0
    3.0349    0.3663    6.5307 H   0  0  0  0  0  0
    1.7855   -3.0649    5.5861 H   0  0  0  0  0  0
    2.0251   -1.9623    6.9352 H   0  0  0  0  0  0
    3.4097   -2.7558    6.1952 H   0  0  0  0  0  0
    1.7483    0.2750    0.7639 H   0  0  0  0  0  0
  1  2  1  0  0  0
  1 49  1  0  0  0
  1 50  1  0  0  0
  1 51  1  0  0  0
  2  3  1  0  0  0
  3  4  1  0  0  0
  3 52  1  0  0  0
  3 53  1  0  0  0
  4  9  1  0  0  0
  4  5  2  0  0  0
  5  6  1  0  0  0
  5 54  1  0  0  0
  6 26  1  0  0  0
  6  7  2  0  0  0
  7  8  1  0  0  0
  7 55  1  0  0  0
  8  9  2  0  0  0
  8 10  1  0  0  0
  9 56  1  0  0  0
 10 11  2  0  0  0
 10 12  1  0  0  0
 12 13  1  0  0  0
 12 57  1  0  0  0
 13 46  1  0  0  0
 13 14  1  0  0  0
 13 27  1  0  0  0
 14 15  1  0  0  0
 14 58  1  0  0  0
 14 59  1  0  0  0
 15 20  1  0  0  0
 15 16  2  0  0  0
 16 17  1  0  0  0
 16 60  1  0  0  0
 17 18  2  0  0  0
 17 21  1  0  0  0
 18 19  1  0  0  0
 18 61  1  0  0  0
 19 20  2  0  0  0
 19 62  1  0  0  0
 20 63  1  0  0  0
 21 22  1  0  0  0
 22 23  1  0  0  0
 22 64  1  0  0  0
 22 65  1  0  0  0
 23 24  1  0  0  0
 23 66  1  0  0  0
 23 67  1  0  0  0
 24 25  1  0  0  0
 24 68  1  0  0  0
 24 69  1  0  0  0
 25 26  1  0  0  0
 25 70  1  0  0  0
 25 71  1  0  0  0
 26 72  1  0  0  0
 27 47  1  0  0  0
 27 28  1  0  0  0
 27 29  1  0  0  0
 28 73  1  0  0  0
 29 30  1  0  0  0
 29 74  1  0  0  0
 29 75  1  0  0  0
 30 31  1  0  0  0
 30 76  1  0  0  0
 30 95  1  0  0  0
 31 48  1  0  0  0
 31 42  1  0  0  0
 31 32  1  0  0  0
 32 33  1  0  0  0
 32 77  1  0  0  0
 32 78  1  0  0  0
 33 34  1  0  0  0
 33 35  1  0  0  0
 33 36  1  0  0  0
 34 79  1  0  0  0
 34 80  1  0  0  0
 34 81  1  0  0  0
 35 82  1  0  0  0
 35 83  1  0  0  0
 35 84  1  0  0  0
 36 37  1  0  0  0
 37 42  2  0  0  0
 37 38  1  0  0  0
 38 39  2  0  0  0
 38 85  1  0  0  0
 39 40  1  0  0  0
 39 86  1  0  0  0
 40 41  2  0  0  0
 40 43  1  0  0  0
 41 42  1  0  0  0
 41 87  1  0  0  0
 43 44  1  0  0  0
 43 45  1  0  0  0
 43 88  1  0  0  0
 44 89  1  0  0  0
 44 90  1  0  0  0
 44 91  1  0  0  0
 45 92  1  0  0  0
 45 93  1  0  0  0
 45 94  1  0  0  0
M  CHG  1  30   1
M  END
> <s_m_source_file>
BACE_128.smi

> <i_m_source_file_index>
1

> <i_lp_mmshare_version>
42013

> <i_f3d_flags>
0

> <s_epik_input>
W2NIXTFbY0hdYyhbQ0hdKFtDSDNdKVtDSDNdKVtjSF1jKGMxMilbQ0BIXShbQ0gyXUMoTzIpKFtDSDNdKVtDSDNdKVtOSF1bQ0gyXVtDQEBIXShbT0hdKVtDQEBIXShbTkhdQyg9TyljKFtjSF0zKVtjSF1jKFtjSF1jMzQpW0NIMl1PW0NIM10pW0NIMl1jNVtjSF1jKFtjSF1bY0hdW2NIXTUpT1tDSDJdW0NIMl1bQ0gyXVtDSDJdW05IXTQ=

> <s_epik_cmdline>
J2VwaWtfcHl0aG9uJywgJy1waCcsICc3LjAnLCAnLXRuJywgJzgnLCAnLW1hJywgJzIwMCcsICctaW1hZScsICc8aW5maWxlLm1hZT4nLCAnLW9tYWUnLCAnPG91dGZpbGUubWFlPic=

> <r_lp_tautomer_probability>
1

> <r_epik_Ionization_Penalty>
0.0200601

> <r_epik_Ionization_Penalty_Charging>
0.0197221

> <r_epik_Ionization_Penalty_Neutral>
0.00033802

> <r_epik_State_Penalty>
0.0157677

> <r_epik_Charging_Adjusted_Penalty>
0.0354898

> <i_epik_Tot_Q>
1

> <i_epik_Tot_abs_Q>
1

> <s_lp_Force_Field>
OPLS_2005

> <r_lp_Energy>
42.809

> <b_lp_Chiralities_Consistent>
1

> <s_lp_Variant>
BACE_128.smi:1-1

$$$$
BACE_128.smi:1
                    3D
 Structure written by MMmdl.
 94 98  0  0  1  0            999 V2000
   -0.0738    9.8131    1.6382 C   0  0  0  0  0  0
   -0.6901    8.6708    1.0700 O   0  0  0  0  0  0
   -2.0894    8.6354    1.3010 C   0  0  0  0  0  0
   -2.7335    7.3934    0.7145 C   0  0  0  0  0  0
   -4.0107    7.4771    0.1182 C   0  0  0  0  0  0
   -4.6341    6.3260   -0.4042 C   0  0  0  0  0  0
   -3.9553    5.0880   -0.3232 C   0  0  0  0  0  0
   -2.6802    4.9861    0.2696 C   0  0  0  0  0  0
   -2.0771    6.1460    0.8003 C   0  0  0  0  0  0
   -2.0119    3.6454    0.3811 C   0  0  0  0  0  0
   -1.2653    3.3799    1.3231 O   0  0  0  0  0  0
   -2.2852    2.7948   -0.6236 N   0  0  0  0  0  0
   -1.9057    1.3860   -0.7045 C   0  0  1  0  0  0
   -2.8449    0.6152   -1.6691 C   0  0  0  0  0  0
   -4.3332    0.8665   -1.4575 C   0  0  0  0  0  0
   -5.0456    1.7206   -2.3274 C   0  0  0  0  0  0
   -6.4341    1.9278   -2.1766 C   0  0  0  0  0  0
   -7.1124    1.2555   -1.1311 C   0  0  0  0  0  0
   -6.4046    0.4137   -0.2506 C   0  0  0  0  0  0
   -5.0195    0.2189   -0.4113 C   0  0  0  0  0  0
   -7.0330    2.7855   -3.0776 O   0  0  0  0  0  0
   -8.4239    3.0910   -2.9819 C   0  0  0  0  0  0
   -8.8111    4.0490   -1.8305 C   0  0  0  0  0  0
   -8.0545    5.3918   -1.7876 C   0  0  0  0  0  0
   -6.6124    5.2020   -1.3098 C   0  0  0  0  0  0
   -5.9122    6.4335   -0.9784 N   0  0  0  0  0  0
   -0.3969    1.2284   -1.0300 C   0  0  2  0  0  0
   -0.1567    1.6201   -2.3682 O   0  0  0  0  0  0
    0.0871   -0.2235   -0.8625 C   0  0  0  0  0  0
    1.5373   -0.2798   -0.6835 N   0  0  0  0  0  0
    2.0797   -1.6020   -0.3525 C   0  0  1  0  0  0
    1.8446   -2.6110   -1.4921 C   0  0  0  0  0  0
    2.7077   -3.8794   -1.3421 C   0  0  0  0  0  0
    2.3471   -4.6921   -0.0805 C   0  0  0  0  0  0
    2.5477   -4.7680   -2.5864 C   0  0  0  0  0  0
    4.0904   -3.5283   -1.2977 O   0  0  0  0  0  0
    4.4699   -2.4914   -0.4733 C   0  0  0  0  0  0
    5.8346   -2.3867   -0.1402 C   0  0  0  0  0  0
    6.2900   -1.3575    0.7043 C   0  0  0  0  0  0
    5.3819   -0.4148    1.2275 C   0  0  0  0  0  0
    4.0161   -0.5092    0.8850 C   0  0  0  0  0  0
    3.5541   -1.5298    0.0241 C   0  0  0  0  0  0
    5.8770    0.6950    2.1460 C   0  0  0  0  0  0
    5.2342    0.6081    3.5394 C   0  0  0  0  0  0
    5.6765    2.0814    1.5137 C   0  0  0  0  0  0
   -2.0745    0.9746    0.2927 H   0  0  0  0  0  0
    0.1858    1.8731   -0.3708 H   0  0  0  0  0  0
    1.5725   -1.9709    0.5397 H   0  0  0  0  0  0
    0.9955    9.7952    1.4277 H   0  0  0  0  0  0
   -0.2034    9.8334    2.7212 H   0  0  0  0  0  0
   -0.4836   10.7328    1.2187 H   0  0  0  0  0  0
   -2.2909    8.6512    2.3733 H   0  0  0  0  0  0
   -2.5529    9.5245    0.8696 H   0  0  0  0  0  0
   -4.5181    8.4297    0.0681 H   0  0  0  0  0  0
   -4.4138    4.1883   -0.7033 H   0  0  0  0  0  0
   -1.1082    6.0826    1.2747 H   0  0  0  0  0  0
   -2.8873    3.1335   -1.3601 H   0  0  0  0  0  0
   -2.6110    0.8684   -2.7035 H   0  0  0  0  0  0
   -2.6651   -0.4567   -1.5811 H   0  0  0  0  0  0
   -4.5237    2.2227   -3.1291 H   0  0  0  0  0  0
   -8.1748    1.3686   -0.9831 H   0  0  0  0  0  0
   -6.9292   -0.0911    0.5472 H   0  0  0  0  0  0
   -4.4885   -0.4384    0.2618 H   0  0  0  0  0  0
   -8.7014    3.5608   -3.9257 H   0  0  0  0  0  0
   -9.0111    2.1733   -2.9345 H   0  0  0  0  0  0
   -9.8762    4.2624   -1.9244 H   0  0  0  0  0  0
   -8.7055    3.5516   -0.8671 H   0  0  0  0  0  0
   -8.0774    5.8817   -2.7615 H   0  0  0  0  0  0
   -8.5714    6.0549   -1.0929 H   0  0  0  0  0  0
   -6.6131    4.5552   -0.4311 H   0  0  0  0  0  0
   -6.0384    4.7058   -2.0899 H   0  0  0  0  0  0
   -6.4305    7.2972   -0.9061 H   0  0  0  0  0  0
   -0.3807    2.5338   -2.4562 H   0  0  0  0  0  0
   -0.3890   -0.6528    0.0196 H   0  0  0  0  0  0
   -0.2298   -0.8300   -1.7113 H   0  0  0  0  0  0
    1.8313    0.3977    0.0126 H   0  0  0  0  0  0
    0.7892   -2.8772   -1.5590 H   0  0  0  0  0  0
    2.1023   -2.1352   -2.4399 H   0  0  0  0  0  0
    1.2994   -4.9939   -0.0944 H   0  0  0  0  0  0
    2.5131   -4.1277    0.8369 H   0  0  0  0  0  0
    2.9499   -5.5983   -0.0135 H   0  0  0  0  0  0
    1.5142   -5.0919   -2.7117 H   0  0  0  0  0  0
    3.1690   -5.6617   -2.5169 H   0  0  0  0  0  0
    2.8404   -4.2366   -3.4927 H   0  0  0  0  0  0
    6.5383   -3.1076   -0.5295 H   0  0  0  0  0  0
    7.3401   -1.2995    0.9503 H   0  0  0  0  0  0
    3.3186    0.2138    1.2817 H   0  0  0  0  0  0
    6.9507    0.5573    2.2811 H   0  0  0  0  0  0
    5.4231   -0.3633    3.9972 H   0  0  0  0  0  0
    4.1541    0.7513    3.4961 H   0  0  0  0  0  0
    5.6400    1.3697    4.2058 H   0  0  0  0  0  0
    6.1800    2.1477    0.5487 H   0  0  0  0  0  0
    6.0844    2.8655    2.1521 H   0  0  0  0  0  0
    4.6208    2.3025    1.3541 H   0  0  0  0  0  0
  1  2  1  0  0  0
  1 49  1  0  0  0
  1 50  1  0  0  0
  1 51  1  0  0  0
  2  3  1  0  0  0
  3  4  1  0  0  0
  3 52  1  0  0  0
  3 53  1  0  0  0
  4  9  1  0  0  0
  4  5  2  0  0  0
  5  6  1  0  0  0
  5 54  1  0  0  0
  6 26  1  0  0  0
  6  7  2  0  0  0
  7  8  1  0  0  0
  7 55  1  0  0  0
  8  9  2  0  0  0
  8 10  1  0  0  0
  9 56  1  0  0  0
 10 11  2  0  0  0
 10 12  1  0  0  0
 12 13  1  0  0  0
 12 57  1  0  0  0
 13 46  1  0  0  0
 13 14  1  0  0  0
 13 27  1  0  0  0
 14 15  1  0  0  0
 14 58  1  0  0  0
 14 59  1  0  0  0
 15 20  1  0  0  0
 15 16  2  0  0  0
 16 17  1  0  0  0
 16 60  1  0  0  0
 17 18  2  0  0  0
 17 21  1  0  0  0
 18 19  1  0  0  0
 18 61  1  0  0  0
 19 20  2  0  0  0
 19 62  1  0  0  0
 20 63  1  0  0  0
 21 22  1  0  0  0
 22 23  1  0  0  0
 22 64  1  0  0  0
 22 65  1  0  0  0
 23 24  1  0  0  0
 23 66  1  0  0  0
 23 67  1  0  0  0
 24 25  1  0  0  0
 24 68  1  0  0  0
 24 69  1  0  0  0
 25 26  1  0  0  0
 25 70  1  0  0  0
 25 71  1  0  0  0
 26 72  1  0  0  0
 27 47  1  0  0  0
 27 28  1  0  0  0
 27 29  1  0  0  0
 28 73  1  0  0  0
 29 30  1  0  0  0
 29 74  1  0  0  0
 29 75  1  0  0  0
 30 31  1  0  0  0
 30 76  1  0  0  0
 31 48  1  0  0  0
 31 42  1  0  0  0
 31 32  1  0  0  0
 32 33  1  0  0  0
 32 77  1  0  0  0
 32 78  1  0  0  0
 33 34  1  0  0  0
 33 35  1  0  0  0
 33 36  1  0  0  0
 34 79  1  0  0  0
 34 80  1  0  0  0
 34 81  1  0  0  0
 35 82  1  0  0  0
 35 83  1  0  0  0
 35 84  1  0  0  0
 36 37  1  0  0  0
 37 42  2  0  0  0
 37 38  1  0  0  0
 38 39  2  0  0  0
 38 85  1  0  0  0
 39 40  1  0  0  0
 39 86  1  0  0  0
 40 41  2  0  0  0
 40 43  1  0  0  0
 41 42  1  0  0  0
 41 87  1  0  0  0
 43 44  1  0  0  0
 43 45  1  0  0  0
 43 88  1  0  0  0
 44 89  1  0  0  0
 44 90  1  0  0  0
 44 91  1  0  0  0
 45 92  1  0  0  0
 45 93  1  0  0  0
 45 94  1  0  0  0
M  END
> <s_m_source_file>
BACE_128.smi

> <i_m_source_file_index>
1

> <i_lp_mmshare_version>
42013

> <i_f3d_flags>
0

> <s_epik_input>
W2NIXTFbY0hdYyhbQ0hdKFtDSDNdKVtDSDNdKVtjSF1jKGMxMilbQ0BIXShbQ0gyXUMoTzIpKFtDSDNdKVtDSDNdKVtOSF1bQ0gyXVtDQEBIXShbT0hdKVtDQEBIXShbTkhdQyg9TyljKFtjSF0zKVtjSF1jKFtjSF1jMzQpW0NIMl1PW0NIM10pW0NIMl1jNVtjSF1jKFtjSF1bY0hdW2NIXTUpT1tDSDJdW0NIMl1bQ0gyXVtDSDJdW05IXTQ=

> <s_epik_cmdline>
J2VwaWtfcHl0aG9uJywgJy1waCcsICc3LjAnLCAnLXRuJywgJzgnLCAnLW1hJywgJzIwMCcsICctaW1hZScsICc8aW5maWxlLm1hZT4nLCAnLW9tYWUnLCAnPG91dGZpbGUubWFlPic=

> <r_lp_tautomer_probability>
1

> <r_epik_Ionization_Penalty>
2.0262

> <r_epik_Ionization_Penalty_Charging>
0

> <r_epik_Ionization_Penalty_Neutral>
2.0262

> <r_epik_State_Penalty>
2.15643

> <r_epik_Charging_Adjusted_Penalty>
2.15643

> <i_epik_Tot_Q>
0

> <i_epik_Tot_abs_Q>
0

> <s_lp_Force_Field>
OPLS_2005

> <r_lp_Energy>
47.4046

> <b_lp_Chiralities_Consistent>
1

> <s_lp_Variant>
BACE_128.smi:1-2

$$$$
