BACE_15.smi:1
                    3D
 Structure written by MMmdl.
 83 86  0  0  1  0            999 V2000
    5.9355    3.6211   -3.2217 C   0  0  0  0  0  0
    4.5966    3.1617   -3.1605 O   0  0  0  0  0  0
    4.0744    2.8343   -4.4389 C   0  0  0  0  0  0
    2.6371    2.3474   -4.3830 C   0  0  0  0  0  0
    1.8673    2.3307   -5.5641 C   0  0  0  0  0  0
    0.5294    1.8888   -5.5503 C   0  0  0  0  0  0
   -0.0184    1.4069   -4.3379 C   0  0  0  0  0  0
    0.7383    1.4228   -3.1481 C   0  0  0  0  0  0
    2.0682    1.8934   -3.1742 C   0  0  0  0  0  0
    0.1372    0.8989   -1.8809 C   0  0  0  0  0  0
   -0.4978   -0.1553   -1.8782 O   0  0  0  0  0  0
    0.3086    1.6784   -0.7971 N   0  0  0  0  0  0
   -0.1635    1.4022    0.5667 C   0  0  1  0  0  0
   -1.7134    1.4335    0.6683 C   0  0  0  0  0  0
   -2.3612    2.7114    0.1539 C   0  0  0  0  0  0
   -2.6787    2.8488   -1.2136 C   0  0  0  0  0  0
   -3.2793    4.0333   -1.7059 C   0  0  0  0  0  0
   -3.6075    5.0578   -0.7955 C   0  0  0  0  0  0
   -3.3029    4.9239    0.5730 C   0  0  0  0  0  0
   -2.6727    3.7574    1.0462 C   0  0  0  0  0  0
   -3.5593    4.2404   -3.0396 O   0  0  0  0  0  0
   -2.7320    3.5525   -3.9695 C   0  0  0  0  0  0
   -2.9033    4.1348   -5.3805 C   0  0  0  0  0  0
   -1.7170    3.8057   -6.3038 C   0  0  0  0  0  0
   -1.5590    2.3092   -6.6528 C   0  0  0  0  0  0
   -0.1794    1.9512   -6.7319 O   0  0  0  0  0  0
    0.4413    0.0904    1.1436 C   0  0  2  0  0  0
    0.1756    0.0287    2.5312 O   0  0  0  0  0  0
    1.9712   -0.0440    0.9739 C   0  0  0  0  0  0
    2.3914   -1.4558    1.1072 N   0  3  0  0  0  0
    3.7815   -1.7462    0.6928 C   0  0  0  0  0  0
    4.0043   -1.4692   -0.7852 C   0  0  0  0  0  0
    3.2981   -2.2082   -1.7579 C   0  0  0  0  0  0
    3.4595   -1.9241   -3.1312 C   0  0  0  0  0  0
    4.3485   -0.9004   -3.5257 C   0  0  0  0  0  0
    5.0666   -0.1723   -2.5588 C   0  0  0  0  0  0
    4.8910   -0.4505   -1.1909 C   0  0  0  0  0  0
    2.6681   -2.7097   -4.1695 C   0  0  0  0  0  0
    3.5843   -3.3981   -5.1940 C   0  0  0  0  0  0
    1.6127   -1.8279   -4.8534 C   0  0  0  0  0  0
    0.2191    2.2307    1.1648 H   0  0  0  0  0  0
   -0.0495   -0.7605    0.6693 H   0  0  0  0  0  0
    6.2904    3.8489   -2.2166 H   0  0  0  0  0  0
    6.0143    4.5294   -3.8200 H   0  0  0  0  0  0
    6.5944    2.8633   -3.6473 H   0  0  0  0  0  0
    4.1218    3.7114   -5.0865 H   0  0  0  0  0  0
    4.6826    2.0552   -4.9009 H   0  0  0  0  0  0
    2.2989    2.6835   -6.4896 H   0  0  0  0  0  0
   -1.0252    1.0218   -4.2998 H   0  0  0  0  0  0
    2.6577    1.8856   -2.2688 H   0  0  0  0  0  0
    0.8198    2.5401   -0.9263 H   0  0  0  0  0  0
   -2.1437    0.5888    0.1291 H   0  0  0  0  0  0
   -2.0186    1.2979    1.7065 H   0  0  0  0  0  0
   -2.4522    2.0305   -1.8786 H   0  0  0  0  0  0
   -4.0785    5.9621   -1.1518 H   0  0  0  0  0  0
   -3.5488    5.7204    1.2597 H   0  0  0  0  0  0
   -2.4405    3.6642    2.0971 H   0  0  0  0  0  0
   -1.6898    3.6567   -3.6618 H   0  0  0  0  0  0
   -2.9766    2.4902   -3.9783 H   0  0  0  0  0  0
   -3.8425    3.7963   -5.8190 H   0  0  0  0  0  0
   -2.9757    5.2202   -5.3028 H   0  0  0  0  0  0
   -1.8081    4.3736   -7.2303 H   0  0  0  0  0  0
   -0.8099    4.1835   -5.8313 H   0  0  0  0  0  0
   -2.1131    1.6601   -5.9782 H   0  0  0  0  0  0
   -2.0041    2.1287   -7.6314 H   0  0  0  0  0  0
   -0.7596    0.0755    2.6621 H   0  0  0  0  0  0
    2.2718    0.3014   -0.0123 H   0  0  0  0  0  0
    2.5086    0.5801    1.6893 H   0  0  0  0  0  0
    2.2723   -1.7318    2.0715 H   0  0  0  0  0  0
    4.4719   -1.1613    1.3019 H   0  0  0  0  0  0
    3.9954   -2.7968    0.8908 H   0  0  0  0  0  0
    2.6147   -2.9843   -1.4454 H   0  0  0  0  0  0
    4.4806   -0.6649   -4.5715 H   0  0  0  0  0  0
    5.7457    0.6081   -2.8675 H   0  0  0  0  0  0
    5.4357    0.1251   -0.4569 H   0  0  0  0  0  0
    2.1315   -3.5013   -3.6446 H   0  0  0  0  0  0
    4.3026   -4.0523   -4.6991 H   0  0  0  0  0  0
    4.1441   -2.6758   -5.7886 H   0  0  0  0  0  0
    3.0047   -4.0106   -5.8853 H   0  0  0  0  0  0
    0.9199   -1.4132   -4.1216 H   0  0  0  0  0  0
    1.0250   -2.4024   -5.5698 H   0  0  0  0  0  0
    2.0691   -0.9960   -5.3911 H   0  0  0  0  0  0
    1.7778   -2.0185    0.5355 H   0  0  0  0  0  0
  1  2  1  0  0  0
  1 43  1  0  0  0
  1 44  1  0  0  0
  1 45  1  0  0  0
  2  3  1  0  0  0
  3  4  1  0  0  0
  3 46  1  0  0  0
  3 47  1  0  0  0
  4  9  1  0  0  0
  4  5  2  0  0  0
  5  6  1  0  0  0
  5 48  1  0  0  0
  6 26  1  0  0  0
  6  7  2  0  0  0
  7  8  1  0  0  0
  7 49  1  0  0  0
  8  9  2  0  0  0
  8 10  1  0  0  0
  9 50  1  0  0  0
 10 11  2  0  0  0
 10 12  1  0  0  0
 12 13  1  0  0  0
 12 51  1  0  0  0
 13 41  1  0  0  0
 13 14  1  0  0  0
 13 27  1  0  0  0
 14 15  1  0  0  0
 14 52  1  0  0  0
 14 53  1  0  0  0
 15 20  1  0  0  0
 15 16  2  0  0  0
 16 17  1  0  0  0
 16 54  1  0  0  0
 17 18  2  0  0  0
 17 21  1  0  0  0
 18 19  1  0  0  0
 18 55  1  0  0  0
 19 20  2  0  0  0
 19 56  1  0  0  0
 20 57  1  0  0  0
 21 22  1  0  0  0
 22 23  1  0  0  0
 22 58  1  0  0  0
 22 59  1  0  0  0
 23 24  1  0  0  0
 23 60  1  0  0  0
 23 61  1  0  0  0
 24 25  1  0  0  0
 24 62  1  0  0  0
 24 63  1  0  0  0
 25 26  1  0  0  0
 25 64  1  0  0  0
 25 65  1  0  0  0
 27 42  1  0  0  0
 27 28  1  0  0  0
 27 29  1  0  0  0
 28 66  1  0  0  0
 29 30  1  0  0  0
 29 67  1  0  0  0
 29 68  1  0  0  0
 30 31  1  0  0  0
 30 69  1  0  0  0
 30 83  1  0  0  0
 31 32  1  0  0  0
 31 70  1  0  0  0
 31 71  1  0  0  0
 32 37  1  0  0  0
 32 33  2  0  0  0
 33 34  1  0  0  0
 33 72  1  0  0  0
 34 35  2  0  0  0
 34 38  1  0  0  0
 35 36  1  0  0  0
 35 73  1  0  0  0
 36 37  2  0  0  0
 36 74  1  0  0  0
 37 75  1  0  0  0
 38 39  1  0  0  0
 38 40  1  0  0  0
 38 76  1  0  0  0
 39 77  1  0  0  0
 39 78  1  0  0  0
 39 79  1  0  0  0
 40 80  1  0  0  0
 40 81  1  0  0  0
 40 82  1  0  0  0
M  CHG  1  30   1
M  END
> <s_m_source_file>
BACE_15.smi

> <i_m_source_file_index>
1

> <i_lp_mmshare_version>
42013

> <i_f3d_flags>
0

> <s_epik_input>
W2NIXTFbY0hdW2NIXWMoW0NIXShbQ0gzXSlbQ0gzXSlbY0hdYzFbQ0gyXVtOSF1bQ0gyXVtDQEBIXShbT0hdKVtDQEBIXShbTkhdQyg9TyljKFtjSF0yKVtjSF1jKFtjSF1jMjMpW0NIMl1PW0NIM10pW0NIMl1jNFtjSF1jKFtjSF1bY0hdW2NIXTQpT1tDSDJdW0NIMl1bQ0gyXVtDSDJdTzM=

> <s_epik_cmdline>
J2VwaWtfcHl0aG9uJywgJy1waCcsICc3LjAnLCAnLXRuJywgJzgnLCAnLW1hJywgJzIwMCcsICctaW1hZScsICc8aW5maWxlLm1hZT4nLCAnLW9tYWUnLCAnPG91dGZpbGUubWFlPic=

> <r_lp_tautomer_probability>
1

> <r_epik_Ionization_Penalty>
0.0191203

> <r_epik_Ionization_Penalty_Charging>
0.0191194

> <r_epik_Ionization_Penalty_Neutral>
8.76464e-07

> <r_epik_State_Penalty>
0.0152524

> <r_epik_Charging_Adjusted_Penalty>
0.0343718

> <i_epik_Tot_Q>
1

> <i_epik_Tot_abs_Q>
1

> <s_lp_Force_Field>
OPLS_2005

> <r_lp_Energy>
30.6611

> <b_lp_Chiralities_Consistent>
1

> <s_lp_Variant>
BACE_15.smi:1-1

$$$$
BACE_15.smi:1
                    3D
 Structure written by MMmdl.
 82 85  0  0  1  0            999 V2000
   -8.0950   -1.5628    0.2736 C   0  0  0  0  0  0
   -8.7496   -0.5211   -0.4340 O   0  0  0  0  0  0
   -7.9804    0.0112   -1.5032 C   0  0  0  0  0  0
   -6.7936    0.8331   -1.0317 C   0  0  0  0  0  0
   -7.0020    1.9423   -0.1832 C   0  0  0  0  0  0
   -5.9065    2.7277    0.2494 C   0  0  0  0  0  0
   -4.6143    2.3821   -0.1791 C   0  0  0  0  0  0
   -4.3871    1.2439   -0.9809 C   0  0  0  0  0  0
   -5.4861    0.4877   -1.4356 C   0  0  0  0  0  0
   -2.9833    0.8445   -1.3147 C   0  0  0  0  0  0
   -2.6476    0.5193   -2.4526 O   0  0  0  0  0  0
   -2.1715    0.8605   -0.2476 N   0  0  0  0  0  0
   -0.7217    0.7033   -0.1958 C   0  0  1  0  0  0
   -0.1814    1.2679    1.1481 C   0  0  0  0  0  0
   -0.7585    2.6257    1.5343 C   0  0  0  0  0  0
   -2.0041    2.7152    2.1955 C   0  0  0  0  0  0
   -2.5856    3.9651    2.4942 C   0  0  0  0  0  0
   -1.8623    5.1425    2.1772 C   0  0  0  0  0  0
   -0.6058    5.0594    1.5463 C   0  0  0  0  0  0
   -0.0590    3.8060    1.2148 C   0  0  0  0  0  0
   -3.8472    3.9534    3.0552 O   0  0  0  0  0  0
   -4.4396    5.1986    3.4060 C   0  0  0  0  0  0
   -5.8687    4.9873    3.9385 C   0  0  0  0  0  0
   -6.9867    5.0988    2.8806 C   0  0  0  0  0  0
   -7.1342    3.8974    1.9345 C   0  0  0  0  0  0
   -6.0090    3.8244    1.0744 O   0  0  0  0  0  0
   -0.3003   -0.7622   -0.4922 C   0  0  2  0  0  0
   -0.7313   -1.6036    0.5595 O   0  0  0  0  0  0
    1.2199   -0.9568   -0.6406 C   0  0  0  0  0  0
    1.7407   -0.2714   -1.8224 N   0  0  0  0  0  0
    3.1923   -0.3520   -1.9698 C   0  0  0  0  0  0
    3.6698   -1.7245   -2.4049 C   0  0  0  0  0  0
    4.1960   -2.6237   -1.4546 C   0  0  0  0  0  0
    4.6312   -3.9085   -1.8475 C   0  0  0  0  0  0
    4.5405   -4.2839   -3.2052 C   0  0  0  0  0  0
    4.0170   -3.3876   -4.1568 C   0  0  0  0  0  0
    3.5796   -2.1104   -3.7577 C   0  0  0  0  0  0
    5.1838   -4.8878   -0.8201 C   0  0  0  0  0  0
    4.1186   -5.2738    0.2182 C   0  0  0  0  0  0
    6.4600   -4.3525   -0.1521 C   0  0  0  0  0  0
   -0.3299    1.3402   -0.9906 H   0  0  0  0  0  0
   -0.7799   -1.1140   -1.4064 H   0  0  0  0  0  0
   -8.7544   -1.9435    1.0536 H   0  0  0  0  0  0
   -7.1810   -1.2113    0.7535 H   0  0  0  0  0  0
   -7.8452   -2.3929   -0.3885 H   0  0  0  0  0  0
   -7.6601   -0.7879   -2.1738 H   0  0  0  0  0  0
   -8.6275    0.6635   -2.0903 H   0  0  0  0  0  0
   -8.0113    2.1809    0.1161 H   0  0  0  0  0  0
   -3.7835    2.9907    0.1435 H   0  0  0  0  0  0
   -5.3256   -0.3758   -2.0653 H   0  0  0  0  0  0
   -2.6039    1.1118    0.6297 H   0  0  0  0  0  0
   -0.4017    0.5786    1.9638 H   0  0  0  0  0  0
    0.9053    1.3466    1.1102 H   0  0  0  0  0  0
   -2.5473    1.8129    2.4365 H   0  0  0  0  0  0
   -2.2536    6.1240    2.3958 H   0  0  0  0  0  0
   -0.0664    5.9627    1.3021 H   0  0  0  0  0  0
    0.8956    3.7543    0.7118 H   0  0  0  0  0  0
   -3.8315    5.6597    4.1859 H   0  0  0  0  0  0
   -4.4624    5.8834    2.5570 H   0  0  0  0  0  0
   -5.9408    4.0458    4.4843 H   0  0  0  0  0  0
   -6.0560    5.7674    4.6772 H   0  0  0  0  0  0
   -7.9328    5.2157    3.4102 H   0  0  0  0  0  0
   -6.8620    6.0135    2.2999 H   0  0  0  0  0  0
   -7.2418    2.9748    2.5073 H   0  0  0  0  0  0
   -8.0404    4.0319    1.3429 H   0  0  0  0  0  0
   -1.6736   -1.5561    0.6120 H   0  0  0  0  0  0
    1.7327   -0.6081    0.2558 H   0  0  0  0  0  0
    1.4355   -2.0232   -0.7173 H   0  0  0  0  0  0
    1.4481    0.7004   -1.8209 H   0  0  0  0  0  0
    3.5170    0.3639   -2.7252 H   0  0  0  0  0  0
    3.6887   -0.0589   -1.0438 H   0  0  0  0  0  0
    4.2568   -2.3271   -0.4176 H   0  0  0  0  0  0
    4.8682   -5.2626   -3.5236 H   0  0  0  0  0  0
    3.9478   -3.6815   -5.1936 H   0  0  0  0  0  0
    3.1736   -1.4286   -4.4908 H   0  0  0  0  0  0
    5.4599   -5.8012   -1.3488 H   0  0  0  0  0  0
    3.2380   -5.6981   -0.2657 H   0  0  0  0  0  0
    3.7944   -4.4122    0.8026 H   0  0  0  0  0  0
    4.5021   -6.0195    0.9148 H   0  0  0  0  0  0
    7.2273   -4.1317   -0.8946 H   0  0  0  0  0  0
    6.8749   -5.0855    0.5403 H   0  0  0  0  0  0
    6.2685   -3.4390    0.4116 H   0  0  0  0  0  0
  1  2  1  0  0  0
  1 43  1  0  0  0
  1 44  1  0  0  0
  1 45  1  0  0  0
  2  3  1  0  0  0
  3  4  1  0  0  0
  3 46  1  0  0  0
  3 47  1  0  0  0
  4  9  1  0  0  0
  4  5  2  0  0  0
  5  6  1  0  0  0
  5 48  1  0  0  0
  6 26  1  0  0  0
  6  7  2  0  0  0
  7  8  1  0  0  0
  7 49  1  0  0  0
  8  9  2  0  0  0
  8 10  1  0  0  0
  9 50  1  0  0  0
 10 11  2  0  0  0
 10 12  1  0  0  0
 12 13  1  0  0  0
 12 51  1  0  0  0
 13 41  1  0  0  0
 13 14  1  0  0  0
 13 27  1  0  0  0
 14 15  1  0  0  0
 14 52  1  0  0  0
 14 53  1  0  0  0
 15 20  1  0  0  0
 15 16  2  0  0  0
 16 17  1  0  0  0
 16 54  1  0  0  0
 17 18  2  0  0  0
 17 21  1  0  0  0
 18 19  1  0  0  0
 18 55  1  0  0  0
 19 20  2  0  0  0
 19 56  1  0  0  0
 20 57  1  0  0  0
 21 22  1  0  0  0
 22 23  1  0  0  0
 22 58  1  0  0  0
 22 59  1  0  0  0
 23 24  1  0  0  0
 23 60  1  0  0  0
 23 61  1  0  0  0
 24 25  1  0  0  0
 24 62  1  0  0  0
 24 63  1  0  0  0
 25 26  1  0  0  0
 25 64  1  0  0  0
 25 65  1  0  0  0
 27 42  1  0  0  0
 27 28  1  0  0  0
 27 29  1  0  0  0
 28 66  1  0  0  0
 29 30  1  0  0  0
 29 67  1  0  0  0
 29 68  1  0  0  0
 30 31  1  0  0  0
 30 69  1  0  0  0
 31 32  1  0  0  0
 31 70  1  0  0  0
 31 71  1  0  0  0
 32 37  1  0  0  0
 32 33  2  0  0  0
 33 34  1  0  0  0
 33 72  1  0  0  0
 34 35  2  0  0  0
 34 38  1  0  0  0
 35 36  1  0  0  0
 35 73  1  0  0  0
 36 37  2  0  0  0
 36 74  1  0  0  0
 37 75  1  0  0  0
 38 39  1  0  0  0
 38 40  1  0  0  0
 38 76  1  0  0  0
 39 77  1  0  0  0
 39 78  1  0  0  0
 39 79  1  0  0  0
 40 80  1  0  0  0
 40 81  1  0  0  0
 40 82  1  0  0  0
M  END
> <s_m_source_file>
BACE_15.smi

> <i_m_source_file_index>
1

> <i_lp_mmshare_version>
42013

> <i_f3d_flags>
0

> <s_epik_input>
W2NIXTFbY0hdW2NIXWMoW0NIXShbQ0gzXSlbQ0gzXSlbY0hdYzFbQ0gyXVtOSF1bQ0gyXVtDQEBIXShbT0hdKVtDQEBIXShbTkhdQyg9TyljKFtjSF0yKVtjSF1jKFtjSF1jMjMpW0NIMl1PW0NIM10pW0NIMl1jNFtjSF1jKFtjSF1bY0hdW2NIXTQpT1tDSDJdW0NIMl1bQ0gyXVtDSDJdTzM=

> <s_epik_cmdline>
J2VwaWtfcHl0aG9uJywgJy1waCcsICc3LjAnLCAnLXRuJywgJzgnLCAnLW1hJywgJzIwMCcsICctaW1hZScsICc8aW5maWxlLm1hZT4nLCAnLW9tYWUnLCAnPG91dGZpbGUubWFlPic=

> <r_lp_tautomer_probability>
1

> <r_epik_Ionization_Penalty>
2.04391

> <r_epik_Ionization_Penalty_Charging>
0

> <r_epik_Ionization_Penalty_Neutral>
2.04391

> <r_epik_State_Penalty>
2.17586

> <r_epik_Charging_Adjusted_Penalty>
2.17586

> <i_epik_Tot_Q>
0

> <i_epik_Tot_abs_Q>
0

> <s_lp_Force_Field>
OPLS_2005

> <r_lp_Energy>
42.2366

> <b_lp_Chiralities_Consistent>
1

> <s_lp_Variant>
BACE_15.smi:1-2

$$$$
