BACE_143.smi:1
                    3D
 Structure written by MMmdl.
 61 61  0  0  1  0            999 V2000
   -2.4191   -1.5918    0.0748 C   0  0  0  0  0  0
   -1.9542   -0.8505   -1.1925 C   0  0  2  0  0  0
   -2.5722   -1.4650   -2.4705 C   0  0  0  0  0  0
   -4.1069   -1.3435   -2.6132 C   0  0  0  0  0  0
   -4.7148    0.0711   -2.4822 C   0  0  0  0  0  0
   -4.5579    1.0117   -3.6933 C   0  0  0  0  0  0
   -3.1128    1.4187   -4.0366 C   0  0  0  0  0  0
   -3.0034    2.7362   -4.8237 C   0  0  0  0  0  0
   -3.2503    4.0317   -4.0185 C   0  0  0  0  0  0
   -2.1238    4.4176   -3.0293 C   0  0  0  0  0  0
   -2.2216    3.8022   -1.6154 C   0  0  0  0  0  0
   -3.2472    3.1957   -1.3074 O   0  0  0  0  0  0
   -1.1782    3.9607   -0.7548 N   0  0  0  0  0  0
    0.0844    4.5595   -1.2130 C   0  0  0  0  0  0
   -1.1915    3.4918    0.6571 C   0  0  1  0  0  0
   -2.4852    3.8350    1.4329 C   0  0  0  0  0  0
   -0.7023    2.0438    0.8645 C   0  0  0  0  0  0
   -0.7866    1.5317    1.9806 O   0  0  0  0  0  0
   -0.1872    1.3966   -0.1953 N   0  0  0  0  0  0
    0.3140    0.0211   -0.2178 C   0  0  1  0  0  0
   -0.4114   -0.8081   -1.3084 C   0  0  0  0  0  0
    1.8579    0.0356   -0.3407 C   0  0  2  0  0  0
    2.2317    0.4870   -1.6297 O   0  0  0  0  0  0
    2.4866   -1.3532   -0.1146 C   0  0  0  0  0  0
    3.8606   -1.2286    0.1888 O   0  0  0  0  0  0
   -2.2957    0.1793   -1.1192 H   0  0  0  0  0  0
   -0.4393    4.0841    1.1789 H   0  0  0  0  0  0
    0.0936   -0.4465    0.7418 H   0  0  0  0  0  0
    2.2584    0.7293    0.4010 H   0  0  0  0  0  0
   -2.0814   -2.6285    0.0739 H   0  0  0  0  0  0
   -3.5053   -1.5954    0.1598 H   0  0  0  0  0  0
   -2.0413   -1.1184    0.9804 H   0  0  0  0  0  0
   -2.1001   -1.0281   -3.3469 H   0  0  0  0  0  0
   -2.3057   -2.5216   -2.5150 H   0  0  0  0  0  0
   -4.4095   -1.7725   -3.5691 H   0  0  0  0  0  0
   -4.5702   -1.9802   -1.8593 H   0  0  0  0  0  0
   -5.7863   -0.0578   -2.3251 H   0  0  0  0  0  0
   -4.3689    0.5662   -1.5765 H   0  0  0  0  0  0
   -5.0268    0.5676   -4.5720 H   0  0  0  0  0  0
   -5.1395    1.9070   -3.4754 H   0  0  0  0  0  0
   -2.4956    1.4672   -3.1422 H   0  0  0  0  0  0
   -2.6778    0.6321   -4.6521 H   0  0  0  0  0  0
   -2.0134    2.7927   -5.2774 H   0  0  0  0  0  0
   -3.7031    2.6994   -5.6595 H   0  0  0  0  0  0
   -3.3316    4.8442   -4.7413 H   0  0  0  0  0  0
   -4.2222    4.0072   -3.5257 H   0  0  0  0  0  0
   -1.1653    4.1811   -3.4900 H   0  0  0  0  0  0
   -2.1430    5.5000   -2.8981 H   0  0  0  0  0  0
   -0.0740    5.5732   -1.5832 H   0  0  0  0  0  0
    0.5276    3.9620   -2.0105 H   0  0  0  0  0  0
    0.8381    4.6245   -0.4283 H   0  0  0  0  0  0
   -2.3270    3.7470    2.5082 H   0  0  0  0  0  0
   -3.3117    3.1696    1.1846 H   0  0  0  0  0  0
   -2.8020    4.8602    1.2393 H   0  0  0  0  0  0
   -0.1572    1.8963   -1.0719 H   0  0  0  0  0  0
   -0.0314   -1.8299   -1.3086 H   0  0  0  0  0  0
   -0.1512   -0.3958   -2.2839 H   0  0  0  0  0  0
    1.9285    1.3754   -1.7348 H   0  0  0  0  0  0
    2.0124   -1.8505    0.7319 H   0  0  0  0  0  0
    2.3558   -2.0012   -0.9819 H   0  0  0  0  0  0
    4.2222   -2.0935    0.3069 H   0  0  0  0  0  0
  1  2  1  0  0  0
  1 30  1  0  0  0
  1 31  1  0  0  0
  1 32  1  0  0  0
  2 26  1  0  0  0
  2 21  1  0  0  0
  2  3  1  0  0  0
  3  4  1  0  0  0
  3 33  1  0  0  0
  3 34  1  0  0  0
  4  5  1  0  0  0
  4 35  1  0  0  0
  4 36  1  0  0  0
  5  6  1  0  0  0
  5 37  1  0  0  0
  5 38  1  0  0  0
  6  7  1  0  0  0
  6 39  1  0  0  0
  6 40  1  0  0  0
  7  8  1  0  0  0
  7 41  1  0  0  0
  7 42  1  0  0  0
  8  9  1  0  0  0
  8 43  1  0  0  0
  8 44  1  0  0  0
  9 10  1  0  0  0
  9 45  1  0  0  0
  9 46  1  0  0  0
 10 11  1  0  0  0
 10 47  1  0  0  0
 10 48  1  0  0  0
 11 12  2  0  0  0
 11 13  1  0  0  0
 13 14  1  0  0  0
 13 15  1  0  0  0
 14 49  1  0  0  0
 14 50  1  0  0  0
 14 51  1  0  0  0
 15 27  1  0  0  0
 15 16  1  0  0  0
 15 17  1  0  0  0
 16 52  1  0  0  0
 16 53  1  0  0  0
 16 54  1  0  0  0
 17 18  2  0  0  0
 17 19  1  0  0  0
 19 20  1  0  0  0
 19 55  1  0  0  0
 20 28  1  0  0  0
 20 21  1  0  0  0
 20 22  1  0  0  0
 21 56  1  0  0  0
 21 57  1  0  0  0
 22 29  1  0  0  0
 22 23  1  0  0  0
 22 24  1  0  0  0
 23 58  1  0  0  0
 24 25  1  0  0  0
 24 59  1  0  0  0
 24 60  1  0  0  0
 25 61  1  0  0  0
M  END
> <s_m_source_file>
BACE_143.smi

> <i_m_source_file_index>
1

> <i_lp_mmshare_version>
42013

> <i_f3d_flags>
0

> <s_epik_input>
W0NIM11bQ0BASF0xW0NIMl1bQ0gyXVtDSDJdW0NIMl1bQ0gyXVtDSDJdW0NIMl1bQ0gyXUMoPU8pTihbQ0gzXSlbQ0BASF0oW0NIM10pQyg9TylbTkhdW0NAQEhdKFtDSDJdMSlbQ0BIXShbT0hdKVtDSDJdW09IXQ==

> <s_epik_cmdline>
J2VwaWtfcHl0aG9uJywgJy1waCcsICc3LjAnLCAnLXRuJywgJzgnLCAnLW1hJywgJzIwMCcsICctaW1hZScsICc8aW5maWxlLm1hZT4nLCAnLW9tYWUnLCAnPG91dGZpbGUubWFlPic=

> <r_lp_tautomer_probability>
1

> <r_epik_Ionization_Penalty>
1.91584e-07

> <r_epik_Ionization_Penalty_Charging>
0

> <r_epik_Ionization_Penalty_Neutral>
1.91584e-07

> <r_epik_State_Penalty>
-0

> <r_epik_Charging_Adjusted_Penalty>
0

> <i_epik_Tot_Q>
0

> <i_epik_Tot_abs_Q>
0

> <s_lp_Force_Field>
OPLS_2005

> <r_lp_Energy>
36.4339

> <b_lp_Chiralities_Consistent>
1

> <s_lp_Variant>
BACE_143.smi:1-1

$$$$
