BACE_48.smi:1
                    3D
 Structure written by MMmdl.
 89 91  0  0  1  0            999 V2000
    1.3965    5.0484   -1.7823 C   0  0  0  0  0  0
    0.1142    4.4561   -2.3957 C   0  0  2  0  0  0
   -0.8157    5.5655   -2.9428 C   0  0  0  0  0  0
   -1.4520    6.4964   -1.8960 C   0  0  0  0  0  0
   -2.4802    5.7937   -1.2251 O   0  0  0  0  0  0
   -3.1579    6.5619   -0.2464 C   0  0  0  0  0  0
   -4.2280    5.6606    0.3781 C   0  0  0  0  0  0
   -3.6238    4.5253    1.2181 C   0  0  0  0  0  0
   -4.6080    3.3658    1.4217 C   0  0  0  0  0  0
   -4.0301    2.2828    2.2023 N   0  0  0  0  0  0
   -3.3486    1.2255    1.5837 C   0  0  0  0  0  0
   -2.8065    1.3049    0.2757 C   0  0  0  0  0  0
   -2.1275    0.1821   -0.2477 C   0  0  0  0  0  0
   -2.0715   -0.9906    0.5345 C   0  0  0  0  0  0
   -2.6375   -0.9723    1.8229 C   0  0  0  0  0  0
   -2.5941   -2.2000    2.7077 C   0  0  0  0  0  0
   -3.2501    0.1119    2.3407 N   0  0  0  0  0  0
   -1.5267    0.1743   -1.6240 C   0  0  0  0  0  0
   -1.9017   -0.6753   -2.4287 O   0  0  0  0  0  0
   -0.5353    1.0304   -1.9515 N   0  0  0  0  0  0
    0.1474    2.1227   -1.2405 C   0  0  1  0  0  0
   -0.5995    3.4679   -1.4395 C   0  0  0  0  0  0
    0.5777    1.8316    0.2283 C   0  0  2  0  0  0
    1.4924    2.8196    0.6600 O   0  0  0  0  0  0
    1.2462    0.4627    0.4728 C   0  0  0  0  0  0
    2.4103    0.2344   -0.4187 N   0  3  0  0  0  0
    2.9624   -1.1459   -0.4633 C   0  0  0  0  0  0
    1.9928   -2.0653   -1.2411 C   0  0  0  0  0  0
    4.2929   -1.1129   -1.2397 C   0  0  0  0  0  0
    3.2049   -1.6644    0.9439 C   0  0  0  0  0  0
    2.6118   -2.7784    1.6048 C   0  0  0  0  0  0
    3.1107   -2.7135    2.8743 C   0  0  0  0  0  0
    2.8695   -3.5305    4.1046 C   0  0  0  0  0  0
    1.9117   -2.8979    5.1502 C   0  0  0  0  0  0
    2.6079   -1.7353    5.8856 C   0  0  0  0  0  0
    1.5284   -3.9740    6.1839 C   0  0  0  0  0  0
    0.6227   -2.3729    4.4835 C   0  0  0  0  0  0
    3.9603   -1.6625    2.9888 O   0  0  0  0  0  0
    4.0082   -0.9966    1.7609 N   0  0  0  0  0  0
    0.4216    3.8856   -3.2734 H   0  0  0  0  0  0
    1.0812    2.1950   -1.7982 H   0  0  0  0  0  0
   -0.2840    1.9161    0.8881 H   0  0  0  0  0  0
    1.1947    5.5526   -0.8372 H   0  0  0  0  0  0
    1.8563    5.7736   -2.4544 H   0  0  0  0  0  0
    2.1413    4.2770   -1.5896 H   0  0  0  0  0  0
   -0.2430    6.1777   -3.6405 H   0  0  0  0  0  0
   -1.6077    5.1136   -3.5415 H   0  0  0  0  0  0
   -0.7099    6.8691   -1.1896 H   0  0  0  0  0  0
   -1.8836    7.3636   -2.3978 H   0  0  0  0  0  0
   -2.4642    6.9241    0.5139 H   0  0  0  0  0  0
   -3.6252    7.4298   -0.7137 H   0  0  0  0  0  0
   -4.8978    6.2531    1.0019 H   0  0  0  0  0  0
   -4.8424    5.2474   -0.4228 H   0  0  0  0  0  0
   -2.7245    4.1497    0.7343 H   0  0  0  0  0  0
   -3.2990    4.9187    2.1822 H   0  0  0  0  0  0
   -5.4923    3.7260    1.9481 H   0  0  0  0  0  0
   -4.9584    2.9840    0.4621 H   0  0  0  0  0  0
   -4.4229    2.1121    3.1171 H   0  0  0  0  0  0
   -2.9072    2.1968   -0.3211 H   0  0  0  0  0  0
   -1.5910   -1.8830    0.1594 H   0  0  0  0  0  0
   -1.8463   -2.9110    2.3553 H   0  0  0  0  0  0
   -3.5646   -2.6967    2.7085 H   0  0  0  0  0  0
   -2.3463   -1.9279    3.7343 H   0  0  0  0  0  0
   -0.2053    0.9124   -2.8986 H   0  0  0  0  0  0
   -0.7527    3.9535   -0.4761 H   0  0  0  0  0  0
   -1.6001    3.2751   -1.8279 H   0  0  0  0  0  0
    1.6089    2.7377    1.5947 H   0  0  0  0  0  0
    1.5582    0.3945    1.5155 H   0  0  0  0  0  0
    0.5215   -0.3313    0.3318 H   0  0  0  0  0  0
    2.1463    0.4919   -1.3586 H   0  0  0  0  0  0
    2.4105   -3.0657   -1.3617 H   0  0  0  0  0  0
    1.7939   -1.6751   -2.2400 H   0  0  0  0  0  0
    1.0304   -2.1820   -0.7433 H   0  0  0  0  0  0
    4.7461   -2.1038   -1.2912 H   0  0  0  0  0  0
    5.0180   -0.4464   -0.7705 H   0  0  0  0  0  0
    4.1488   -0.7648   -2.2633 H   0  0  0  0  0  0
    1.9020   -3.4969    1.2223 H   0  0  0  0  0  0
    2.4623   -4.4918    3.7884 H   0  0  0  0  0  0
    3.8260   -3.7654    4.5735 H   0  0  0  0  0  0
    1.9683   -1.3220    6.6665 H   0  0  0  0  0  0
    2.8543   -0.9174    5.2090 H   0  0  0  0  0  0
    3.5341   -2.0612    6.3602 H   0  0  0  0  0  0
    2.4102   -4.3748    6.6852 H   0  0  0  0  0  0
    1.0078   -4.8105    5.7157 H   0  0  0  0  0  0
    0.8694   -3.5707    6.9537 H   0  0  0  0  0  0
   -0.0841   -2.0021    5.2268 H   0  0  0  0  0  0
    0.1221   -3.1612    3.9210 H   0  0  0  0  0  0
    0.8215   -1.5506    3.7954 H   0  0  0  0  0  0
    3.1459    0.8567   -0.1151 H   0  0  0  0  0  0
  1  2  1  0  0  0
  1 43  1  0  0  0
  1 44  1  0  0  0
  1 45  1  0  0  0
  2 40  1  0  0  0
  2 22  1  0  0  0
  2  3  1  0  0  0
  3  4  1  0  0  0
  3 46  1  0  0  0
  3 47  1  0  0  0
  4  5  1  0  0  0
  4 48  1  0  0  0
  4 49  1  0  0  0
  5  6  1  0  0  0
  6  7  1  0  0  0
  6 50  1  0  0  0
  6 51  1  0  0  0
  7  8  1  0  0  0
  7 52  1  0  0  0
  7 53  1  0  0  0
  8  9  1  0  0  0
  8 54  1  0  0  0
  8 55  1  0  0  0
  9 10  1  0  0  0
  9 56  1  0  0  0
  9 57  1  0  0  0
 10 11  1  0  0  0
 10 58  1  0  0  0
 11 17  1  0  0  0
 11 12  2  0  0  0
 12 13  1  0  0  0
 12 59  1  0  0  0
 13 14  2  0  0  0
 13 18  1  0  0  0
 14 15  1  0  0  0
 14 60  1  0  0  0
 15 16  1  0  0  0
 15 17  2  0  0  0
 16 61  1  0  0  0
 16 62  1  0  0  0
 16 63  1  0  0  0
 18 19  2  0  0  0
 18 20  1  0  0  0
 20 21  1  0  0  0
 20 64  1  0  0  0
 21 41  1  0  0  0
 21 22  1  0  0  0
 21 23  1  0  0  0
 22 65  1  0  0  0
 22 66  1  0  0  0
 23 42  1  0  0  0
 23 24  1  0  0  0
 23 25  1  0  0  0
 24 67  1  0  0  0
 25 26  1  0  0  0
 25 68  1  0  0  0
 25 69  1  0  0  0
 26 27  1  0  0  0
 26 70  1  0  0  0
 26 89  1  0  0  0
 27 28  1  0  0  0
 27 29  1  0  0  0
 27 30  1  0  0  0
 28 71  1  0  0  0
 28 72  1  0  0  0
 28 73  1  0  0  0
 29 74  1  0  0  0
 29 75  1  0  0  0
 29 76  1  0  0  0
 30 39  2  0  0  0
 30 31  1  0  0  0
 31 32  2  0  0  0
 31 77  1  0  0  0
 32 33  1  0  0  0
 32 38  1  0  0  0
 33 34  1  0  0  0
 33 78  1  0  0  0
 33 79  1  0  0  0
 34 35  1  0  0  0
 34 36  1  0  0  0
 34 37  1  0  0  0
 35 80  1  0  0  0
 35 81  1  0  0  0
 35 82  1  0  0  0
 36 83  1  0  0  0
 36 84  1  0  0  0
 36 85  1  0  0  0
 37 86  1  0  0  0
 37 87  1  0  0  0
 37 88  1  0  0  0
 38 39  1  0  0  0
M  CHG  1  26   1
M  END
> <s_m_source_file>
BACE_48.smi

> <i_m_source_file_index>
1

> <i_lp_mmshare_version>
42013

> <i_f3d_flags>
0

> <s_epik_input>
W05IXTFbQ0gyXVtDSDJdW0NIMl1bQ0gyXU9bQ0gyXVtDSDJdW0NAQEhdKFtDSDNdKVtDSDJdW0NASF0oW05IXUMoPU8pYyhbY0hdYzEyKVtjSF1jKG4yKVtDSDNdKVtDQEhdKFtPSF0pW0NIMl1bTkhdQyhbQ0gzXSkoW0NIM10pYzNbY0hdYyhvbjMpW0NIMl1DKFtDSDNdKShbQ0gzXSlbQ0gzXQ==

> <s_epik_cmdline>
J2VwaWtfcHl0aG9uJywgJy1waCcsICc3LjAnLCAnLXRuJywgJzgnLCAnLW1hJywgJzIwMCcsICctaW1hZScsICc8aW5maWxlLm1hZT4nLCAnLW9tYWUnLCAnPG91dGZpbGUubWFlPic=

> <r_lp_tautomer_probability>
1

> <r_epik_Ionization_Penalty>
0.227896

> <r_epik_Ionization_Penalty_Charging>
0.217347

> <r_epik_Ionization_Penalty_Neutral>
0.0105489

> <r_epik_State_Penalty>
0.200937

> <r_epik_Charging_Adjusted_Penalty>
0.418284

> <i_epik_Tot_Q>
1

> <i_epik_Tot_abs_Q>
1

> <s_lp_Force_Field>
OPLS_2005

> <r_lp_Energy>
30.832

> <b_lp_Chiralities_Consistent>
1

> <s_lp_Variant>
BACE_48.smi:1-1

$$$$
BACE_48.smi:1
                    3D
 Structure written by MMmdl.
 88 90  0  0  1  0            999 V2000
    1.5561    4.8369    0.0871 C   0  0  0  0  0  0
    0.5874    4.6783   -1.0995 C   0  0  2  0  0  0
    0.0339    6.0452   -1.5676 C   0  0  0  0  0  0
   -0.9016    6.7720   -0.5865 C   0  0  0  0  0  0
   -2.1578    6.1226   -0.5901 O   0  0  0  0  0  0
   -3.1139    6.7146    0.2709 C   0  0  0  0  0  0
   -4.4061    5.9019    0.1391 C   0  0  0  0  0  0
   -4.2704    4.4841    0.7149 C   0  0  0  0  0  0
   -5.3355    3.5274    0.1625 C   0  0  0  0  0  0
   -5.2009    2.1828    0.7009 N   0  0  0  0  0  0
   -4.3850    1.2235    0.0845 C   0  0  0  0  0  0
   -3.3703    1.5454   -0.8523 C   0  0  0  0  0  0
   -2.5971    0.4984   -1.4025 C   0  0  0  0  0  0
   -2.9098   -0.8278   -1.0387 C   0  0  0  0  0  0
   -3.9346   -1.0476   -0.0998 C   0  0  0  0  0  0
   -4.2892   -2.4506    0.3462 C   0  0  0  0  0  0
   -4.6471   -0.0472    0.4583 N   0  0  0  0  0  0
   -1.5044    0.7460   -2.4017 C   0  0  0  0  0  0
   -1.5935    0.2338   -3.5155 O   0  0  0  0  0  0
   -0.4110    1.4609   -2.0628 N   0  0  0  0  0  0
    0.0058    2.1589   -0.8368 C   0  0  1  0  0  0
   -0.5123    3.6211   -0.8271 C   0  0  0  0  0  0
   -0.1972    1.3803    0.4978 C   0  0  2  0  0  0
    0.4877    2.0273    1.5519 O   0  0  0  0  0  0
    0.2667   -0.0929    0.4936 C   0  0  0  0  0  0
    1.6275   -0.2413   -0.0334 N   0  0  0  0  0  0
    2.1615   -1.6020   -0.2267 C   0  0  0  0  0  0
    2.0593   -2.4243    1.0760 C   0  0  0  0  0  0
    1.3632   -2.3215   -1.3379 C   0  0  0  0  0  0
    3.6272   -1.4964   -0.6121 C   0  0  0  0  0  0
    4.3341   -2.1663   -1.6526 C   0  0  0  0  0  0
    5.6168   -1.7141   -1.5292 C   0  0  0  0  0  0
    6.8752   -2.0090   -2.2839 C   0  0  0  0  0  0
    7.8543   -2.9997   -1.6012 C   0  0  0  0  0  0
    8.4631   -2.3777   -0.3282 C   0  0  0  0  0  0
    8.9957   -3.3194   -2.5856 C   0  0  0  0  0  0
    7.1370   -4.3140   -1.2291 C   0  0  0  0  0  0
    5.7047   -0.8350   -0.5002 O   0  0  0  0  0  0
    4.4391   -0.7059    0.0796 N   0  0  0  0  0  0
    1.1794    4.3124   -1.9397 H   0  0  0  0  0  0
    1.0864    2.2115   -0.9693 H   0  0  0  0  0  0
   -1.2476    1.4044    0.7815 H   0  0  0  0  0  0
    1.0311    5.1161    1.0006 H   0  0  0  0  0  0
    2.3041    5.6040   -0.1151 H   0  0  0  0  0  0
    2.0951    3.9120    0.2897 H   0  0  0  0  0  0
    0.8795    6.6999   -1.7815 H   0  0  0  0  0  0
   -0.4815    5.9211   -2.5209 H   0  0  0  0  0  0
   -0.4800    6.8022    0.4185 H   0  0  0  0  0  0
   -1.0353    7.8046   -0.9120 H   0  0  0  0  0  0
   -2.7601    6.7171    1.3031 H   0  0  0  0  0  0
   -3.2897    7.7497   -0.0252 H   0  0  0  0  0  0
   -5.2254    6.4182    0.6403 H   0  0  0  0  0  0
   -4.6770    5.8521   -0.9165 H   0  0  0  0  0  0
   -3.2832    4.0879    0.4861 H   0  0  0  0  0  0
   -4.3278    4.5263    1.8033 H   0  0  0  0  0  0
   -6.3279    3.8960    0.4228 H   0  0  0  0  0  0
   -5.2972    3.4951   -0.9270 H   0  0  0  0  0  0
   -5.9252    1.8547    1.3234 H   0  0  0  0  0  0
   -3.1819    2.5640   -1.1504 H   0  0  0  0  0  0
   -2.3602   -1.6591   -1.4569 H   0  0  0  0  0  0
   -3.9616   -3.1879   -0.3873 H   0  0  0  0  0  0
   -5.3673   -2.5566    0.4721 H   0  0  0  0  0  0
   -3.8072   -2.6754    1.2977 H   0  0  0  0  0  0
    0.2687    1.5339   -2.8057 H   0  0  0  0  0  0
   -0.9929    3.8410    0.1260 H   0  0  0  0  0  0
   -1.2941    3.7343   -1.5786 H   0  0  0  0  0  0
    0.2913    1.5758    2.3585 H   0  0  0  0  0  0
    0.2021   -0.4897    1.5069 H   0  0  0  0  0  0
   -0.4263   -0.6798   -0.1012 H   0  0  0  0  0  0
    2.2810    0.3163    0.5085 H   0  0  0  0  0  0
    2.5308   -3.4007    0.9582 H   0  0  0  0  0  0
    1.0246   -2.6063    1.3671 H   0  0  0  0  0  0
    2.5542   -1.9216    1.9078 H   0  0  0  0  0  0
    1.7618   -3.3177   -1.5324 H   0  0  0  0  0  0
    1.3960   -1.7635   -2.2748 H   0  0  0  0  0  0
    0.3148   -2.4584   -1.0746 H   0  0  0  0  0  0
    3.9637   -2.8748   -2.3780 H   0  0  0  0  0  0
    6.5952   -2.4033   -3.2617 H   0  0  0  0  0  0
    7.3909   -1.0704   -2.4905 H   0  0  0  0  0  0
    9.2086   -3.0380    0.1161 H   0  0  0  0  0  0
    7.7069   -2.1923    0.4347 H   0  0  0  0  0  0
    8.9541   -1.4282   -0.5446 H   0  0  0  0  0  0
    9.5386   -2.4170   -2.8700 H   0  0  0  0  0  0
    8.6183   -3.7775   -3.5008 H   0  0  0  0  0  0
    9.7173   -4.0108   -2.1482 H   0  0  0  0  0  0
    7.8355   -5.0425   -0.8160 H   0  0  0  0  0  0
    6.6666   -4.7693   -2.1013 H   0  0  0  0  0  0
    6.3598   -4.1556   -0.4809 H   0  0  0  0  0  0
  1  2  1  0  0  0
  1 43  1  0  0  0
  1 44  1  0  0  0
  1 45  1  0  0  0
  2 40  1  0  0  0
  2 22  1  0  0  0
  2  3  1  0  0  0
  3  4  1  0  0  0
  3 46  1  0  0  0
  3 47  1  0  0  0
  4  5  1  0  0  0
  4 48  1  0  0  0
  4 49  1  0  0  0
  5  6  1  0  0  0
  6  7  1  0  0  0
  6 50  1  0  0  0
  6 51  1  0  0  0
  7  8  1  0  0  0
  7 52  1  0  0  0
  7 53  1  0  0  0
  8  9  1  0  0  0
  8 54  1  0  0  0
  8 55  1  0  0  0
  9 10  1  0  0  0
  9 56  1  0  0  0
  9 57  1  0  0  0
 10 11  1  0  0  0
 10 58  1  0  0  0
 11 17  1  0  0  0
 11 12  2  0  0  0
 12 13  1  0  0  0
 12 59  1  0  0  0
 13 14  2  0  0  0
 13 18  1  0  0  0
 14 15  1  0  0  0
 14 60  1  0  0  0
 15 16  1  0  0  0
 15 17  2  0  0  0
 16 61  1  0  0  0
 16 62  1  0  0  0
 16 63  1  0  0  0
 18 19  2  0  0  0
 18 20  1  0  0  0
 20 21  1  0  0  0
 20 64  1  0  0  0
 21 41  1  0  0  0
 21 22  1  0  0  0
 21 23  1  0  0  0
 22 65  1  0  0  0
 22 66  1  0  0  0
 23 42  1  0  0  0
 23 24  1  0  0  0
 23 25  1  0  0  0
 24 67  1  0  0  0
 25 26  1  0  0  0
 25 68  1  0  0  0
 25 69  1  0  0  0
 26 27  1  0  0  0
 26 70  1  0  0  0
 27 28  1  0  0  0
 27 29  1  0  0  0
 27 30  1  0  0  0
 28 71  1  0  0  0
 28 72  1  0  0  0
 28 73  1  0  0  0
 29 74  1  0  0  0
 29 75  1  0  0  0
 29 76  1  0  0  0
 30 39  2  0  0  0
 30 31  1  0  0  0
 31 32  2  0  0  0
 31 77  1  0  0  0
 32 33  1  0  0  0
 32 38  1  0  0  0
 33 34  1  0  0  0
 33 78  1  0  0  0
 33 79  1  0  0  0
 34 35  1  0  0  0
 34 36  1  0  0  0
 34 37  1  0  0  0
 35 80  1  0  0  0
 35 81  1  0  0  0
 35 82  1  0  0  0
 36 83  1  0  0  0
 36 84  1  0  0  0
 36 85  1  0  0  0
 37 86  1  0  0  0
 37 87  1  0  0  0
 37 88  1  0  0  0
 38 39  1  0  0  0
M  END
> <s_m_source_file>
BACE_48.smi

> <i_m_source_file_index>
1

> <i_lp_mmshare_version>
42013

> <i_f3d_flags>
0

> <s_epik_input>
W05IXTFbQ0gyXVtDSDJdW0NIMl1bQ0gyXU9bQ0gyXVtDSDJdW0NAQEhdKFtDSDNdKVtDSDJdW0NASF0oW05IXUMoPU8pYyhbY0hdYzEyKVtjSF1jKG4yKVtDSDNdKVtDQEhdKFtPSF0pW0NIMl1bTkhdQyhbQ0gzXSkoW0NIM10pYzNbY0hdYyhvbjMpW0NIMl1DKFtDSDNdKShbQ0gzXSlbQ0gzXQ==

> <s_epik_cmdline>
J2VwaWtfcHl0aG9uJywgJy1waCcsICc3LjAnLCAnLXRuJywgJzgnLCAnLW1hJywgJzIwMCcsICctaW1hZScsICc8aW5maWxlLm1hZT4nLCAnLW9tYWUnLCAnPG91dGZpbGUubWFlPic=

> <r_lp_tautomer_probability>
1

> <r_epik_Ionization_Penalty>
0.715659

> <r_epik_Ionization_Penalty_Charging>
0

> <r_epik_Ionization_Penalty_Neutral>
0.715659

> <r_epik_State_Penalty>
0.772402

> <r_epik_Charging_Adjusted_Penalty>
0.772402

> <i_epik_Tot_Q>
0

> <i_epik_Tot_abs_Q>
0

> <s_lp_Force_Field>
OPLS_2005

> <r_lp_Energy>
39.7757

> <b_lp_Chiralities_Consistent>
1

> <s_lp_Variant>
BACE_48.smi:1-2

$$$$
BACE_48.smi:1
                    3D
 Structure written by MMmdl.
 90 92  0  0  1  0            999 V2000
   -5.3573    2.9449   -0.7887 C   0  0  0  0  0  0
   -4.3694    3.6470    0.1579 C   0  0  2  0  0  0
   -4.5409    5.1854    0.0989 C   0  0  0  0  0  0
   -5.5190    5.7586    1.1371 C   0  0  0  0  0  0
   -4.8876    5.7758    2.4100 O   0  0  0  0  0  0
   -5.6843    6.3631    3.4256 C   0  0  0  0  0  0
   -4.9504    6.3475    4.7803 C   0  0  0  0  0  0
   -3.7547    7.3215    4.8875 C   0  0  0  0  0  0
   -2.3694    6.6568    4.7886 C   0  0  0  0  0  0
   -2.1267    6.1229    3.4594 N   0  0  0  0  0  0
   -1.5894    4.8336    3.4566 C   0  0  0  0  0  0
   -2.3645    3.7366    3.0448 C   0  0  0  0  0  0
   -1.7968    2.4491    3.0003 C   0  0  0  0  0  0
   -0.4651    2.2786    3.4377 C   0  0  0  0  0  0
    0.2660    3.4071    3.8710 C   0  0  0  0  0  0
    1.6973    3.3037    4.3520 C   0  0  0  0  0  0
   -0.3162    4.6292    3.8638 N   0  3  0  0  0  0
   -2.6299    1.2763    2.5867 C   0  0  0  0  0  0
   -2.9744    0.4569    3.4341 O   0  0  0  0  0  0
   -3.0118    1.1551    1.2984 N   0  0  0  0  0  0
   -2.4973    1.7735    0.0647 C   0  0  1  0  0  0
   -2.9004    3.2586   -0.1397 C   0  0  0  0  0  0
   -0.9744    1.5421   -0.1583 C   0  0  2  0  0  0
   -0.6906    1.7998   -1.5204 O   0  0  0  0  0  0
   -0.4857    0.1081    0.1397 C   0  0  0  0  0  0
    0.9738   -0.0251   -0.0940 N   0  3  0  0  0  0
    1.6626   -1.1891    0.5247 C   0  0  0  0  0  0
    3.0614   -1.3149   -0.1075 C   0  0  0  0  0  0
    1.8512   -0.9204    2.0347 C   0  0  0  0  0  0
    0.8837   -2.4725    0.2893 C   0  0  0  0  0  0
    0.3499   -3.3819    1.2467 C   0  0  0  0  0  0
   -0.3142   -4.3053    0.4917 C   0  0  0  0  0  0
   -1.1362   -5.5034    0.8473 C   0  0  0  0  0  0
   -2.6747   -5.3084    0.7689 C   0  0  0  0  0  0
   -3.1088   -3.9549    1.3731 C   0  0  0  0  0  0
   -3.3575   -6.4420    1.5581 C   0  0  0  0  0  0
   -3.1440   -5.3784   -0.6977 C   0  0  0  0  0  0
   -0.1931   -4.0062   -0.8259 O   0  0  0  0  0  0
    0.5692   -2.8400   -0.9458 N   0  0  0  0  0  0
   -4.6197    3.3172    1.1637 H   0  0  0  0  0  0
   -3.0086    1.2069   -0.7148 H   0  0  0  0  0  0
   -0.4039    2.2468    0.4477 H   0  0  0  0  0  0
   -5.1510    3.1882   -1.8314 H   0  0  0  0  0  0
   -6.3838    3.2439   -0.5752 H   0  0  0  0  0  0
   -5.3089    1.8611   -0.6841 H   0  0  0  0  0  0
   -3.5829    5.6876    0.2391 H   0  0  0  0  0  0
   -4.8667    5.4731   -0.9016 H   0  0  0  0  0  0
   -5.7837    6.7790    0.8553 H   0  0  0  0  0  0
   -6.4421    5.1779    1.1661 H   0  0  0  0  0  0
   -5.9524    7.3856    3.1548 H   0  0  0  0  0  0
   -6.6148    5.8007    3.5150 H   0  0  0  0  0  0
   -5.6778    6.6323    5.5414 H   0  0  0  0  0  0
   -4.6474    5.3315    5.0361 H   0  0  0  0  0  0
   -3.8459    8.1261    4.1566 H   0  0  0  0  0  0
   -3.8071    7.8097    5.8612 H   0  0  0  0  0  0
   -1.5941    7.3930    5.0028 H   0  0  0  0  0  0
   -2.2794    5.8790    5.5489 H   0  0  0  0  0  0
   -2.9560    6.1986    2.8867 H   0  0  0  0  0  0
   -3.3961    3.8828    2.7796 H   0  0  0  0  0  0
   -0.0138    1.2971    3.4488 H   0  0  0  0  0  0
    2.1040    2.3096    4.1633 H   0  0  0  0  0  0
    1.7513    3.4972    5.4237 H   0  0  0  0  0  0
    2.3264    4.0311    3.8381 H   0  0  0  0  0  0
   -3.6565    0.3959    1.1286 H   0  0  0  0  0  0
   -2.6829    3.5419   -1.1701 H   0  0  0  0  0  0
   -2.2341    3.8805    0.4549 H   0  0  0  0  0  0
   -0.9686    2.6797   -1.7275 H   0  0  0  0  0  0
   -0.6972   -0.1492    1.1747 H   0  0  0  0  0  0
   -1.0279   -0.6095   -0.4773 H   0  0  0  0  0  0
    1.1067   -0.0790   -1.0942 H   0  0  0  0  0  0
    3.6116   -2.1579    0.3123 H   0  0  0  0  0  0
    3.6579   -0.4174    0.0606 H   0  0  0  0  0  0
    3.0028   -1.4677   -1.1859 H   0  0  0  0  0  0
    2.4286   -1.7158    2.5080 H   0  0  0  0  0  0
    0.9030   -0.8541    2.5675 H   0  0  0  0  0  0
    2.3867    0.0139    2.2079 H   0  0  0  0  0  0
    0.4176   -3.3532    2.3241 H   0  0  0  0  0  0
   -0.8345   -6.3482    0.2268 H   0  0  0  0  0  0
   -0.8688   -5.7893    1.8654 H   0  0  0  0  0  0
   -4.1951   -3.8626    1.3943 H   0  0  0  0  0  0
   -2.7290   -3.1091    0.7990 H   0  0  0  0  0  0
   -2.7518   -3.8466    2.3980 H   0  0  0  0  0  0
   -3.0776   -6.4204    2.6119 H   0  0  0  0  0  0
   -3.0814   -7.4212    1.1653 H   0  0  0  0  0  0
   -4.4442   -6.3642    1.5084 H   0  0  0  0  0  0
   -4.2288   -5.2928   -0.7707 H   0  0  0  0  0  0
   -2.8594   -6.3225   -1.1634 H   0  0  0  0  0  0
   -2.7163   -4.5743   -1.2966 H   0  0  0  0  0  0
    1.4300    0.8122    0.2376 H   0  0  0  0  0  0
    0.2314    5.4326    4.1742 H   0  0  0  0  0  0
  1  2  1  0  0  0
  1 43  1  0  0  0
  1 44  1  0  0  0
  1 45  1  0  0  0
  2 40  1  0  0  0
  2 22  1  0  0  0
  2  3  1  0  0  0
  3  4  1  0  0  0
  3 46  1  0  0  0
  3 47  1  0  0  0
  4  5  1  0  0  0
  4 48  1  0  0  0
  4 49  1  0  0  0
  5  6  1  0  0  0
  6  7  1  0  0  0
  6 50  1  0  0  0
  6 51  1  0  0  0
  7  8  1  0  0  0
  7 52  1  0  0  0
  7 53  1  0  0  0
  8  9  1  0  0  0
  8 54  1  0  0  0
  8 55  1  0  0  0
  9 10  1  0  0  0
  9 56  1  0  0  0
  9 57  1  0  0  0
 10 11  1  0  0  0
 10 58  1  0  0  0
 11 17  1  0  0  0
 11 12  2  0  0  0
 12 13  1  0  0  0
 12 59  1  0  0  0
 13 14  2  0  0  0
 13 18  1  0  0  0
 14 15  1  0  0  0
 14 60  1  0  0  0
 15 16  1  0  0  0
 15 17  2  0  0  0
 16 61  1  0  0  0
 16 62  1  0  0  0
 16 63  1  0  0  0
 17 90  1  0  0  0
 18 19  2  0  0  0
 18 20  1  0  0  0
 20 21  1  0  0  0
 20 64  1  0  0  0
 21 41  1  0  0  0
 21 22  1  0  0  0
 21 23  1  0  0  0
 22 65  1  0  0  0
 22 66  1  0  0  0
 23 42  1  0  0  0
 23 24  1  0  0  0
 23 25  1  0  0  0
 24 67  1  0  0  0
 25 26  1  0  0  0
 25 68  1  0  0  0
 25 69  1  0  0  0
 26 27  1  0  0  0
 26 70  1  0  0  0
 26 89  1  0  0  0
 27 28  1  0  0  0
 27 29  1  0  0  0
 27 30  1  0  0  0
 28 71  1  0  0  0
 28 72  1  0  0  0
 28 73  1  0  0  0
 29 74  1  0  0  0
 29 75  1  0  0  0
 29 76  1  0  0  0
 30 39  2  0  0  0
 30 31  1  0  0  0
 31 32  2  0  0  0
 31 77  1  0  0  0
 32 33  1  0  0  0
 32 38  1  0  0  0
 33 34  1  0  0  0
 33 78  1  0  0  0
 33 79  1  0  0  0
 34 35  1  0  0  0
 34 36  1  0  0  0
 34 37  1  0  0  0
 35 80  1  0  0  0
 35 81  1  0  0  0
 35 82  1  0  0  0
 36 83  1  0  0  0
 36 84  1  0  0  0
 36 85  1  0  0  0
 37 86  1  0  0  0
 37 87  1  0  0  0
 37 88  1  0  0  0
 38 39  1  0  0  0
M  CHG  2  17   1  26   1
M  END
> <s_m_source_file>
BACE_48.smi

> <i_m_source_file_index>
1

> <i_lp_mmshare_version>
42013

> <i_f3d_flags>
0

> <s_epik_input>
W05IXTFbQ0gyXVtDSDJdW0NIMl1bQ0gyXU9bQ0gyXVtDSDJdW0NAQEhdKFtDSDNdKVtDSDJdW0NASF0oW05IXUMoPU8pYyhbY0hdYzEyKVtjSF1jKG4yKVtDSDNdKVtDQEhdKFtPSF0pW0NIMl1bTkhdQyhbQ0gzXSkoW0NIM10pYzNbY0hdYyhvbjMpW0NIMl1DKFtDSDNdKShbQ0gzXSlbQ0gzXQ==

> <s_epik_cmdline>
J2VwaWtfcHl0aG9uJywgJy1waCcsICc3LjAnLCAnLXRuJywgJzgnLCAnLW1hJywgJzIwMCcsICctaW1hZScsICc8aW5maWxlLm1hZT4nLCAnLW9tYWUnLCAnPG91dGZpbGUubWFlPic=

> <r_lp_tautomer_probability>
0.999994

> <r_epik_Ionization_Penalty>
2.62354

> <r_epik_Ionization_Penalty_Charging>
2.62353

> <r_epik_Ionization_Penalty_Neutral>
1.04021e-05

> <r_epik_State_Penalty>
2.68635

> <r_epik_Charging_Adjusted_Penalty>
5.30987

> <i_epik_Tot_Q>
2

> <i_epik_Tot_abs_Q>
2

> <s_lp_Force_Field>
OPLS_2005

> <r_lp_Energy>
44.8214

> <b_lp_Chiralities_Consistent>
1

> <s_lp_Variant>
BACE_48.smi:1-3

$$$$
