BACE_103.smi:1
                    3D
 Structure written by MMmdl.
 76 79  0  0  1  0            999 V2000
   -4.3673    1.7296   -2.6201 C   0  0  0  0  0  0
   -3.3250    2.8007   -3.0126 C   0  0  0  0  0  0
   -2.6719    2.3549   -4.3375 C   0  0  0  0  0  0
   -4.0739    4.1299   -3.2361 C   0  0  0  0  0  0
   -2.2399    2.9998   -1.9393 C   0  0  0  0  0  0
   -1.1867    3.9184   -2.1592 C   0  0  0  0  0  0
   -0.2035    4.0924   -1.1662 C   0  0  0  0  0  0
   -0.2066    3.4223    0.0039 N   0  0  0  0  0  0
   -1.2090    2.5450    0.2224 C   0  0  0  0  0  0
   -1.1736    1.8040    1.5466 C   0  0  0  0  0  0
   -0.6839    0.4187    1.3889 N   0  3  0  0  0  0
    0.7433    0.2988    1.0200 C   0  0  0  0  0  0
    1.1672   -1.1788    0.8940 C   0  0  1  0  0  0
    0.4421   -1.7290   -0.1897 O   0  0  0  0  0  0
    2.6809   -1.3767    0.6110 C   0  0  2  0  0  0
    3.0945   -2.8746    0.5348 C   0  0  0  0  0  0
    4.5939   -3.1219    0.6372 C   0  0  0  0  0  0
    5.1152   -3.9094    1.6848 C   0  0  0  0  0  0
    6.5066   -4.0688    1.8222 C   0  0  0  0  0  0
    7.3836   -3.4298    0.9252 C   0  0  0  0  0  0
    6.8702   -2.6370   -0.1285 C   0  0  0  0  0  0
    5.4752   -2.5179   -0.2829 C   0  0  0  0  0  0
    7.6650   -1.9473   -1.0155 O   0  0  0  0  0  0
    8.8675   -1.3681   -0.5167 C   0  0  0  0  0  0
    8.5871   -0.3632    0.5867 C   0  0  0  0  0  0
    8.4130    0.9541    0.3837 C   0  0  0  0  0  0
    8.0663    1.9959    1.4367 C   0  0  0  0  0  0
    8.1199    1.5418    2.8220 N   0  0  0  0  0  0
    6.9513    1.1036    3.4605 C   0  0  0  0  0  0
    5.9090    0.4391    2.7725 C   0  0  0  0  0  0
    4.7738    0.0084    3.4999 C   0  0  0  0  0  0
    4.7345    0.2734    4.8854 C   0  0  0  0  0  0
    5.8189    0.9436    5.4842 C   0  0  0  0  0  0
    5.7697    1.2603    7.1788 Cl  0  0  0  0  0  0
    6.9034    1.3439    4.7876 N   0  0  0  0  0  0
    3.6687   -0.7744    2.8472 C   0  0  0  0  0  0
    2.9359   -1.5080    3.5108 O   0  0  0  0  0  0
    3.5414   -0.6073    1.5192 N   0  0  0  0  0  0
   -2.2409    2.2993   -0.7078 C   0  0  0  0  0  0
    0.8871   -1.7155    1.8011 H   0  0  0  0  0  0
    2.8933   -0.9391   -0.3656 H   0  0  0  0  0  0
   -5.1176    1.6046   -3.4017 H   0  0  0  0  0  0
   -4.9018    2.0005   -1.7088 H   0  0  0  0  0  0
   -3.9043    0.7544   -2.4644 H   0  0  0  0  0  0
   -2.1184    1.4238   -4.2115 H   0  0  0  0  0  0
   -1.9768    3.1001   -4.7242 H   0  0  0  0  0  0
   -3.4215    2.1879   -5.1120 H   0  0  0  0  0  0
   -4.8608    4.0227   -3.9836 H   0  0  0  0  0  0
   -3.4080    4.9202   -3.5831 H   0  0  0  0  0  0
   -4.5430    4.4777   -2.3148 H   0  0  0  0  0  0
   -1.1254    4.4893   -3.0738 H   0  0  0  0  0  0
    0.6085    4.7881   -1.3179 H   0  0  0  0  0  0
   -0.5571    2.3367    2.2727 H   0  0  0  0  0  0
   -2.1829    1.7711    1.9576 H   0  0  0  0  0  0
   -0.8220   -0.0658    2.2640 H   0  0  0  0  0  0
    0.9396    0.8215    0.0830 H   0  0  0  0  0  0
    1.3249    0.8018    1.7926 H   0  0  0  0  0  0
    0.6687   -2.6433   -0.2721 H   0  0  0  0  0  0
    2.6018   -3.4244    1.3378 H   0  0  0  0  0  0
    2.7331   -3.3166   -0.3943 H   0  0  0  0  0  0
    4.4533   -4.3791    2.3975 H   0  0  0  0  0  0
    6.9032   -4.6688    2.6279 H   0  0  0  0  0  0
    8.4468   -3.5563    1.0608 H   0  0  0  0  0  0
    5.0821   -1.9077   -1.0830 H   0  0  0  0  0  0
    9.5796   -2.1214   -0.1800 H   0  0  0  0  0  0
    9.3462   -0.8512   -1.3488 H   0  0  0  0  0  0
    8.4774   -0.7767    1.5785 H   0  0  0  0  0  0
    8.4933    1.3347   -0.6242 H   0  0  0  0  0  0
    8.7736    2.8191    1.3350 H   0  0  0  0  0  0
    7.0826    2.4107    1.2146 H   0  0  0  0  0  0
    8.8169    1.9796    3.4075 H   0  0  0  0  0  0
    5.9948    0.2378    1.7151 H   0  0  0  0  0  0
    3.8963   -0.0419    5.4898 H   0  0  0  0  0  0
    4.1803    0.0401    1.0801 H   0  0  0  0  0  0
   -3.0072    1.5817   -0.4588 H   0  0  0  0  0  0
   -1.2368   -0.0380    0.6773 H   0  0  0  0  0  0
  1  2  1  0  0  0
  1 42  1  0  0  0
  1 43  1  0  0  0
  1 44  1  0  0  0
  2  3  1  0  0  0
  2  4  1  0  0  0
  2  5  1  0  0  0
  3 45  1  0  0  0
  3 46  1  0  0  0
  3 47  1  0  0  0
  4 48  1  0  0  0
  4 49  1  0  0  0
  4 50  1  0  0  0
  5 39  1  0  0  0
  5  6  2  0  0  0
  6  7  1  0  0  0
  6 51  1  0  0  0
  7  8  2  0  0  0
  7 52  1  0  0  0
  8  9  1  0  0  0
  9 10  1  0  0  0
  9 39  2  0  0  0
 10 11  1  0  0  0
 10 53  1  0  0  0
 10 54  1  0  0  0
 11 12  1  0  0  0
 11 55  1  0  0  0
 11 76  1  0  0  0
 12 13  1  0  0  0
 12 56  1  0  0  0
 12 57  1  0  0  0
 13 40  1  0  0  0
 13 14  1  0  0  0
 13 15  1  0  0  0
 14 58  1  0  0  0
 15 41  1  0  0  0
 15 38  1  0  0  0
 15 16  1  0  0  0
 16 17  1  0  0  0
 16 59  1  0  0  0
 16 60  1  0  0  0
 17 22  1  0  0  0
 17 18  2  0  0  0
 18 19  1  0  0  0
 18 61  1  0  0  0
 19 20  2  0  0  0
 19 62  1  0  0  0
 20 21  1  0  0  0
 20 63  1  0  0  0
 21 22  2  0  0  0
 21 23  1  0  0  0
 22 64  1  0  0  0
 23 24  1  0  0  0
 24 25  1  0  0  0
 24 65  1  0  0  0
 24 66  1  0  0  0
 25 26  2  0  0  0
 25 67  1  0  0  0
 26 27  1  0  0  0
 26 68  1  0  0  0
 27 28  1  0  0  0
 27 69  1  0  0  0
 27 70  1  0  0  0
 28 29  1  0  0  0
 28 71  1  0  0  0
 29 35  1  0  0  0
 29 30  2  0  0  0
 30 31  1  0  0  0
 30 72  1  0  0  0
 31 32  2  0  0  0
 31 36  1  0  0  0
 32 33  1  0  0  0
 32 73  1  0  0  0
 33 34  1  0  0  0
 33 35  2  0  0  0
 36 37  2  0  0  0
 36 38  1  0  0  0
 38 74  1  0  0  0
 39 75  1  0  0  0
M  CHG  1  11   1
M  END
> <s_m_source_file>
BACE_103.smi

> <i_m_source_file_index>
1

> <i_lp_mmshare_version>
42013

> <i_f3d_flags>
0

> <s_epik_input>
W0NIM11DKFtDSDNdKShbQ0gzXSljMVtjSF1bY0hdbmMoW2NIXTEpW0NIMl1bTkhdW0NIMl1bQ0BASF0oW09IXSlbQ0BIXShbQ0gyXTIpW05IXUMoPU8pYyhbY0hdYyhDbCluMylbY0hdYzNbTkhdW0NIMl1cW0NIXT1bQ0hdXFtDSDJdT2MoW2NIXTQpW2NIXVtjSF1bY0hdYzI0

> <s_epik_cmdline>
J2VwaWtfcHl0aG9uJywgJy1waCcsICc3LjAnLCAnLXRuJywgJzgnLCAnLW1hJywgJzIwMCcsICctaW1hZScsICc8aW5maWxlLm1hZT4nLCAnLW9tYWUnLCAnPG91dGZpbGUubWFlPic=

> <r_lp_tautomer_probability>
1

> <r_epik_Ionization_Penalty>
0.0399394

> <r_epik_Ionization_Penalty_Charging>
0.0397144

> <r_epik_Ionization_Penalty_Neutral>
0.000224953

> <r_epik_State_Penalty>
0.0333841

> <r_epik_Charging_Adjusted_Penalty>
0.0730985

> <i_epik_Tot_Q>
1

> <i_epik_Tot_abs_Q>
1

> <s_lp_Force_Field>
OPLS_2005

> <r_lp_Energy>
23.177

> <b_lp_Chiralities_Consistent>
1

> <s_lp_Variant>
BACE_103.smi:1-1

$$$$
BACE_103.smi:1
                    3D
 Structure written by MMmdl.
 75 78  0  0  1  0            999 V2000
   -4.6014    4.0417   -2.2307 C   0  0  0  0  0  0
   -4.9599    2.5486   -2.0807 C   0  0  0  0  0  0
   -6.4922    2.4461   -1.9104 C   0  0  0  0  0  0
   -4.5780    1.8010   -3.3748 C   0  0  0  0  0  0
   -4.1864    1.9506   -0.8920 C   0  0  0  0  0  0
   -4.8292    1.3716    0.2298 C   0  0  0  0  0  0
   -4.0422    0.8518    1.2770 C   0  0  0  0  0  0
   -2.6936    0.8748    1.2773 N   0  0  0  0  0  0
   -2.0762    1.4234    0.2094 C   0  0  0  0  0  0
   -0.5616    1.4309    0.2418 C   0  0  0  0  0  0
   -0.0005    0.1155   -0.0454 N   0  0  0  0  0  0
    1.4558    0.1254   -0.1484 C   0  0  0  0  0  0
    2.0185   -1.3022   -0.3210 C   0  0  1  0  0  0
    1.7360   -1.7034   -1.6478 O   0  0  0  0  0  0
    3.5547   -1.4000   -0.1199 C   0  0  2  0  0  0
    4.0975   -2.8528   -0.2487 C   0  0  0  0  0  0
    5.5072   -3.0496    0.2954 C   0  0  0  0  0  0
    5.7442   -3.9619    1.3447 C   0  0  0  0  0  0
    7.0316   -4.0788    1.9011 C   0  0  0  0  0  0
    8.0840   -3.2745    1.4240 C   0  0  0  0  0  0
    7.8567   -2.3570    0.3710 C   0  0  0  0  0  0
    6.5745   -2.2768   -0.2069 C   0  0  0  0  0  0
    8.8247   -1.5097   -0.1181 O   0  0  0  0  0  0
    9.7496   -0.9528    0.8118 C   0  0  0  0  0  0
    9.0449   -0.1261    1.8727 C   0  0  0  0  0  0
    8.8285    1.1974    1.7798 C   0  0  0  0  0  0
    8.0752    2.0662    2.7762 C   0  0  0  0  0  0
    7.7387    1.4326    4.0464 N   0  0  0  0  0  0
    6.4759    0.8497    4.2224 C   0  0  0  0  0  0
    5.7715    0.2271    3.1661 C   0  0  0  0  0  0
    4.5107   -0.3569    3.4337 C   0  0  0  0  0  0
    4.0118   -0.2840    4.7516 C   0  0  0  0  0  0
    4.7840    0.3577    5.7392 C   0  0  0  0  0  0
    4.1753    0.4396    7.3508 Cl  0  0  0  0  0  0
    5.9897    0.9071    5.4801 N   0  0  0  0  0  0
    3.7481   -1.1002    2.3734 C   0  0  0  0  0  0
    2.9332   -1.9724    2.6742 O   0  0  0  0  0  0
    4.0172   -0.7389    1.1067 N   0  0  0  0  0  0
   -2.7719    1.9671   -0.8898 C   0  0  0  0  0  0
    1.5156   -1.9837    0.3665 H   0  0  0  0  0  0
    4.0268   -0.8148   -0.9104 H   0  0  0  0  0  0
   -5.1491    4.5006   -3.0547 H   0  0  0  0  0  0
   -3.5402    4.1907   -2.4309 H   0  0  0  0  0  0
   -4.8453    4.5983   -1.3252 H   0  0  0  0  0  0
   -6.8362    2.9826   -1.0253 H   0  0  0  0  0  0
   -6.8203    1.4094   -1.8268 H   0  0  0  0  0  0
   -7.0137    2.8767   -2.7661 H   0  0  0  0  0  0
   -5.1249    2.1904   -4.2342 H   0  0  0  0  0  0
   -4.8051    0.7371   -3.2970 H   0  0  0  0  0  0
   -3.5161    1.8935   -3.6039 H   0  0  0  0  0  0
   -5.9033    1.3135    0.3135 H   0  0  0  0  0  0
   -4.5118    0.4058    2.1413 H   0  0  0  0  0  0
   -0.1998    2.1594   -0.4849 H   0  0  0  0  0  0
   -0.2300    1.7776    1.2215 H   0  0  0  0  0  0
   -0.2740   -0.5281    0.6905 H   0  0  0  0  0  0
    1.7796    0.7657   -0.9702 H   0  0  0  0  0  0
    1.8568    0.5719    0.7613 H   0  0  0  0  0  0
    2.1379   -1.0867   -2.2400 H   0  0  0  0  0  0
    3.4277   -3.5337    0.2783 H   0  0  0  0  0  0
    4.0802   -3.1672   -1.2927 H   0  0  0  0  0  0
    4.9369   -4.5605    1.7409 H   0  0  0  0  0  0
    7.2089   -4.7743    2.7082 H   0  0  0  0  0  0
    9.0585   -3.3726    1.8772 H   0  0  0  0  0  0
    6.3977   -1.5704   -1.0047 H   0  0  0  0  0  0
   10.3814   -1.7123    1.2718 H   0  0  0  0  0  0
   10.4207   -0.3029    0.2494 H   0  0  0  0  0  0
    8.6629   -0.6783    2.7185 H   0  0  0  0  0  0
    9.1908    1.7178    0.9052 H   0  0  0  0  0  0
    8.6980    2.9325    2.9990 H   0  0  0  0  0  0
    7.1742    2.4536    2.2988 H   0  0  0  0  0  0
    8.1716    1.8272    4.8693 H   0  0  0  0  0  0
    6.2037    0.1727    2.1781 H   0  0  0  0  0  0
    3.0587   -0.7221    5.0111 H   0  0  0  0  0  0
    4.6841    0.0086    0.9802 H   0  0  0  0  0  0
   -2.2216    2.3910   -1.7165 H   0  0  0  0  0  0
  1  2  1  0  0  0
  1 42  1  0  0  0
  1 43  1  0  0  0
  1 44  1  0  0  0
  2  3  1  0  0  0
  2  4  1  0  0  0
  2  5  1  0  0  0
  3 45  1  0  0  0
  3 46  1  0  0  0
  3 47  1  0  0  0
  4 48  1  0  0  0
  4 49  1  0  0  0
  4 50  1  0  0  0
  5 39  1  0  0  0
  5  6  2  0  0  0
  6  7  1  0  0  0
  6 51  1  0  0  0
  7  8  2  0  0  0
  7 52  1  0  0  0
  8  9  1  0  0  0
  9 10  1  0  0  0
  9 39  2  0  0  0
 10 11  1  0  0  0
 10 53  1  0  0  0
 10 54  1  0  0  0
 11 12  1  0  0  0
 11 55  1  0  0  0
 12 13  1  0  0  0
 12 56  1  0  0  0
 12 57  1  0  0  0
 13 40  1  0  0  0
 13 14  1  0  0  0
 13 15  1  0  0  0
 14 58  1  0  0  0
 15 41  1  0  0  0
 15 38  1  0  0  0
 15 16  1  0  0  0
 16 17  1  0  0  0
 16 59  1  0  0  0
 16 60  1  0  0  0
 17 22  1  0  0  0
 17 18  2  0  0  0
 18 19  1  0  0  0
 18 61  1  0  0  0
 19 20  2  0  0  0
 19 62  1  0  0  0
 20 21  1  0  0  0
 20 63  1  0  0  0
 21 22  2  0  0  0
 21 23  1  0  0  0
 22 64  1  0  0  0
 23 24  1  0  0  0
 24 25  1  0  0  0
 24 65  1  0  0  0
 24 66  1  0  0  0
 25 26  2  0  0  0
 25 67  1  0  0  0
 26 27  1  0  0  0
 26 68  1  0  0  0
 27 28  1  0  0  0
 27 69  1  0  0  0
 27 70  1  0  0  0
 28 29  1  0  0  0
 28 71  1  0  0  0
 29 35  1  0  0  0
 29 30  2  0  0  0
 30 31  1  0  0  0
 30 72  1  0  0  0
 31 32  2  0  0  0
 31 36  1  0  0  0
 32 33  1  0  0  0
 32 73  1  0  0  0
 33 34  1  0  0  0
 33 35  2  0  0  0
 36 37  2  0  0  0
 36 38  1  0  0  0
 38 74  1  0  0  0
 39 75  1  0  0  0
M  END
> <s_m_source_file>
BACE_103.smi

> <i_m_source_file_index>
1

> <i_lp_mmshare_version>
42013

> <i_f3d_flags>
0

> <s_epik_input>
W0NIM11DKFtDSDNdKShbQ0gzXSljMVtjSF1bY0hdbmMoW2NIXTEpW0NIMl1bTkhdW0NIMl1bQ0BASF0oW09IXSlbQ0BIXShbQ0gyXTIpW05IXUMoPU8pYyhbY0hdYyhDbCluMylbY0hdYzNbTkhdW0NIMl1cW0NIXT1bQ0hdXFtDSDJdT2MoW2NIXTQpW2NIXVtjSF1bY0hdYzI0

> <s_epik_cmdline>
J2VwaWtfcHl0aG9uJywgJy1waCcsICc3LjAnLCAnLXRuJywgJzgnLCAnLW1hJywgJzIwMCcsICctaW1hZScsICc8aW5maWxlLm1hZT4nLCAnLW9tYWUnLCAnPG91dGZpbGUubWFlPic=

> <r_lp_tautomer_probability>
1

> <r_epik_Ionization_Penalty>
1.62271

> <r_epik_Ionization_Penalty_Charging>
0

> <r_epik_Ionization_Penalty_Neutral>
1.62271

> <r_epik_State_Penalty>
1.72075

> <r_epik_Charging_Adjusted_Penalty>
1.72075

> <i_epik_Tot_Q>
0

> <i_epik_Tot_abs_Q>
0

> <s_lp_Force_Field>
OPLS_2005

> <r_lp_Energy>
31.2268

> <b_lp_Chiralities_Consistent>
1

> <s_lp_Variant>
BACE_103.smi:1-2

$$$$
