BACE_9.smi:1
                    3D
 Structure written by MMmdl.
 88 90  0  0  1  0            999 V2000
   -0.0371   -3.7483   -1.8988 C   0  0  0  0  0  0
   -0.2584   -2.3502   -1.8362 O   0  0  0  0  0  0
   -0.6651   -1.8073   -3.0838 C   0  0  0  0  0  0
   -1.0248   -0.3379   -2.9729 C   0  0  0  0  0  0
   -2.0890    0.1912   -3.7327 C   0  0  0  0  0  0
   -2.4271    1.5577   -3.6459 C   0  0  0  0  0  0
   -1.6919    2.3901   -2.7717 C   0  0  0  0  0  0
   -0.6572    1.8614   -1.9745 C   0  0  0  0  0  0
   -0.2930    0.5072   -2.1158 C   0  0  0  0  0  0
    0.0427    2.7588   -1.0011 C   0  0  0  0  0  0
    0.6729    3.7269   -1.4188 O   0  0  0  0  0  0
   -0.0716    2.5214    0.3221 N   0  0  0  0  0  0
   -0.8136    1.5105    1.0960 C   0  0  1  0  0  0
   -2.3067    1.3418    0.7031 C   0  0  0  0  0  0
   -3.1674    2.6247    0.6124 C   0  0  2  0  0  0
   -3.4003    3.2425    2.0032 C   0  0  0  0  0  0
   -4.4910    2.2938   -0.1134 C   0  0  0  0  0  0
   -5.4265    3.4926   -0.3613 C   0  0  0  0  0  0
   -6.6434    3.1532   -1.2449 C   0  0  0  0  0  0
   -6.3565    2.7850   -2.7189 C   0  0  0  0  0  0
   -5.9341    3.9600   -3.6254 C   0  0  0  0  0  0
   -4.4219    4.2529   -3.6851 C   0  0  0  0  0  0
   -3.6350    3.4443   -4.7369 C   0  0  0  0  0  0
   -3.4982    2.0276   -4.4217 N   0  0  0  0  0  0
   -0.0902    0.1373    1.2031 C   0  0  2  0  0  0
   -0.4587   -0.4553    2.4342 O   0  0  0  0  0  0
    1.4518    0.1873    1.1610 C   0  0  0  0  0  0
    2.0235   -1.1754    1.1103 N   0  3  0  0  0  0
    3.4118   -1.2529    0.6124 C   0  0  0  0  0  0
    3.4500   -1.1970   -0.9046 C   0  0  0  0  0  0
    3.7397    0.0117   -1.5722 C   0  0  0  0  0  0
    3.7499    0.0658   -2.9839 C   0  0  0  0  0  0
    3.4723   -1.1032   -3.7238 C   0  0  0  0  0  0
    3.1929   -2.3128   -3.0612 C   0  0  0  0  0  0
    3.1820   -2.3602   -1.6548 C   0  0  0  0  0  0
    4.0625    1.3674   -3.7106 C   0  0  0  0  0  0
    5.5077    1.8222   -3.4545 C   0  0  0  0  0  0
    3.0512    2.4700   -3.3639 C   0  0  0  0  0  0
   -0.7983    1.9409    2.0977 H   0  0  0  0  0  0
   -2.6440    3.3604    0.0021 H   0  0  0  0  0  0
   -0.4425   -0.5207    0.4091 H   0  0  0  0  0  0
    0.3134   -4.1069   -0.9311 H   0  0  0  0  0  0
    0.7179   -3.9985   -2.6449 H   0  0  0  0  0  0
   -0.9570   -4.2812   -2.1422 H   0  0  0  0  0  0
    0.1360   -1.9178   -3.8162 H   0  0  0  0  0  0
   -1.5296   -2.3578   -3.4593 H   0  0  0  0  0  0
   -2.6479   -0.4569   -4.3924 H   0  0  0  0  0  0
   -1.9288    3.4377   -2.6727 H   0  0  0  0  0  0
    0.5367    0.1059   -1.5557 H   0  0  0  0  0  0
    0.4194    3.1880    0.9005 H   0  0  0  0  0  0
   -2.3621    0.8071   -0.2437 H   0  0  0  0  0  0
   -2.7805    0.6673    1.4174 H   0  0  0  0  0  0
   -3.9582    2.5648    2.6504 H   0  0  0  0  0  0
   -3.9575    4.1766    1.9388 H   0  0  0  0  0  0
   -2.4588    3.4768    2.4988 H   0  0  0  0  0  0
   -4.2390    1.8454   -1.0737 H   0  0  0  0  0  0
   -5.0328    1.5263    0.4409 H   0  0  0  0  0  0
   -5.8057    3.8410    0.5993 H   0  0  0  0  0  0
   -4.8783    4.3375   -0.7727 H   0  0  0  0  0  0
   -7.1772    2.3229   -0.7810 H   0  0  0  0  0  0
   -7.3404    3.9916   -1.2219 H   0  0  0  0  0  0
   -5.6543    1.9569   -2.7927 H   0  0  0  0  0  0
   -7.2891    2.3924   -3.1258 H   0  0  0  0  0  0
   -6.2897    3.7751   -4.6397 H   0  0  0  0  0  0
   -6.4604    4.8581   -3.2997 H   0  0  0  0  0  0
   -4.3068    5.3050   -3.9470 H   0  0  0  0  0  0
   -3.9682    4.1532   -2.7044 H   0  0  0  0  0  0
   -4.1251    3.5305   -5.7070 H   0  0  0  0  0  0
   -2.6428    3.8776   -4.8680 H   0  0  0  0  0  0
   -3.9456    1.3740   -5.0483 H   0  0  0  0  0  0
   -1.4015   -0.5233    2.4654 H   0  0  0  0  0  0
    1.7809    0.7245    0.2738 H   0  0  0  0  0  0
    1.8560    0.7257    2.0191 H   0  0  0  0  0  0
    1.9868   -1.5589    2.0441 H   0  0  0  0  0  0
    4.0218   -0.4620    1.0512 H   0  0  0  0  0  0
    3.8426   -2.2004    0.9375 H   0  0  0  0  0  0
    3.9492    0.9027   -0.9983 H   0  0  0  0  0  0
    3.4764   -1.0799   -4.8039 H   0  0  0  0  0  0
    2.9830   -3.2044   -3.6335 H   0  0  0  0  0  0
    2.9591   -3.2913   -1.1543 H   0  0  0  0  0  0
    3.9716    1.1789   -4.7812 H   0  0  0  0  0  0
    6.2188    1.0523   -3.7559 H   0  0  0  0  0  0
    5.6804    2.0410   -2.4004 H   0  0  0  0  0  0
    5.7403    2.7239   -4.0215 H   0  0  0  0  0  0
    2.0327    2.1532   -3.5905 H   0  0  0  0  0  0
    3.2478    3.3765   -3.9366 H   0  0  0  0  0  0
    3.0927    2.7345   -2.3073 H   0  0  0  0  0  0
    1.4474   -1.7459    0.5078 H   0  0  0  0  0  0
  1  2  1  0  0  0
  1 42  1  0  0  0
  1 43  1  0  0  0
  1 44  1  0  0  0
  2  3  1  0  0  0
  3  4  1  0  0  0
  3 45  1  0  0  0
  3 46  1  0  0  0
  4  9  1  0  0  0
  4  5  2  0  0  0
  5  6  1  0  0  0
  5 47  1  0  0  0
  6 24  1  0  0  0
  6  7  2  0  0  0
  7  8  1  0  0  0
  7 48  1  0  0  0
  8  9  2  0  0  0
  8 10  1  0  0  0
  9 49  1  0  0  0
 10 11  2  0  0  0
 10 12  1  0  0  0
 12 13  1  0  0  0
 12 50  1  0  0  0
 13 39  1  0  0  0
 13 14  1  0  0  0
 13 25  1  0  0  0
 14 15  1  0  0  0
 14 51  1  0  0  0
 14 52  1  0  0  0
 15 40  1  0  0  0
 15 16  1  0  0  0
 15 17  1  0  0  0
 16 53  1  0  0  0
 16 54  1  0  0  0
 16 55  1  0  0  0
 17 18  1  0  0  0
 17 56  1  0  0  0
 17 57  1  0  0  0
 18 19  1  0  0  0
 18 58  1  0  0  0
 18 59  1  0  0  0
 19 20  1  0  0  0
 19 60  1  0  0  0
 19 61  1  0  0  0
 20 21  1  0  0  0
 20 62  1  0  0  0
 20 63  1  0  0  0
 21 22  1  0  0  0
 21 64  1  0  0  0
 21 65  1  0  0  0
 22 23  1  0  0  0
 22 66  1  0  0  0
 22 67  1  0  0  0
 23 24  1  0  0  0
 23 68  1  0  0  0
 23 69  1  0  0  0
 24 70  1  0  0  0
 25 41  1  0  0  0
 25 26  1  0  0  0
 25 27  1  0  0  0
 26 71  1  0  0  0
 27 28  1  0  0  0
 27 72  1  0  0  0
 27 73  1  0  0  0
 28 29  1  0  0  0
 28 74  1  0  0  0
 28 88  1  0  0  0
 29 30  1  0  0  0
 29 75  1  0  0  0
 29 76  1  0  0  0
 30 35  1  0  0  0
 30 31  2  0  0  0
 31 32  1  0  0  0
 31 77  1  0  0  0
 32 33  2  0  0  0
 32 36  1  0  0  0
 33 34  1  0  0  0
 33 78  1  0  0  0
 34 35  2  0  0  0
 34 79  1  0  0  0
 35 80  1  0  0  0
 36 37  1  0  0  0
 36 38  1  0  0  0
 36 81  1  0  0  0
 37 82  1  0  0  0
 37 83  1  0  0  0
 37 84  1  0  0  0
 38 85  1  0  0  0
 38 86  1  0  0  0
 38 87  1  0  0  0
M  CHG  1  28   1
M  END
> <s_m_source_file>
BACE_9.smi

> <i_m_source_file_index>
1

> <i_lp_mmshare_version>
42013

> <i_f3d_flags>
0

> <s_epik_input>
W2NIXTFbY0hdW2NIXWMoW0NIXShbQ0gzXSlbQ0gzXSlbY0hdYzFbQ0gyXVtOSF1bQ0gyXVtDQEBIXShbT0hdKVtDQEBIXShbTkhdQyg9TyljKFtjSF0yKVtjSF1jKFtjSF1jMjMpW0NIMl1PW0NIM10pW0NIMl1bQ0BIXShbQ0gzXSlbQ0gyXVtDSDJdW0NIMl1bQ0gyXVtDSDJdW0NIMl1bQ0gyXVtOSF0z

> <s_epik_cmdline>
J2VwaWtfcHl0aG9uJywgJy1waCcsICc3LjAnLCAnLXRuJywgJzgnLCAnLW1hJywgJzIwMCcsICctaW1hZScsICc8aW5maWxlLm1hZT4nLCAnLW9tYWUnLCAnPG91dGZpbGUubWFlPic=

> <r_epik_Ionization_Penalty>
0.0170656

> <r_epik_Ionization_Penalty_Charging>
0.0165153

> <r_epik_Ionization_Penalty_Neutral>
0.000550372

> <r_epik_State_Penalty>
0.0130399

> <r_epik_Charging_Adjusted_Penalty>
0.0295552

> <i_epik_Tot_Q>
1

> <i_epik_Tot_abs_Q>
1

> <s_lp_Force_Field>
OPLS_2005

> <r_lp_Energy>
36.2782

> <b_lp_Chiralities_Consistent>
1

> <s_lp_Variant>
BACE_9.smi:1-1

$$$$
BACE_9.smi:1
                    3D
 Structure written by MMmdl.
 87 89  0  0  1  0            999 V2000
   -2.0695   -4.6128   -1.1420 C   0  0  0  0  0  0
   -1.9994   -3.2223   -1.4019 O   0  0  0  0  0  0
   -2.8010   -2.8295   -2.5061 C   0  0  0  0  0  0
   -2.7179   -1.3379   -2.7719 C   0  0  0  0  0  0
   -3.8114   -0.6597   -3.3508 C   0  0  0  0  0  0
   -3.7392    0.7219   -3.6266 C   0  0  0  0  0  0
   -2.5563    1.4240   -3.3010 C   0  0  0  0  0  0
   -1.4783    0.7649   -2.6776 C   0  0  0  0  0  0
   -1.5436   -0.6247   -2.4581 C   0  0  0  0  0  0
   -0.2757    1.5546   -2.2653 C   0  0  0  0  0  0
    0.4262    2.0795   -3.1265 O   0  0  0  0  0  0
   -0.0108    1.7139   -0.9518 N   0  0  0  0  0  0
   -0.7013    1.2553    0.2671 C   0  0  1  0  0  0
   -2.2262    1.5483    0.3134 C   0  0  0  0  0  0
   -2.6816    2.9954    0.0084 C   0  0  2  0  0  0
   -2.2465    3.9672    1.1208 C   0  0  0  0  0  0
   -4.2109    3.0048   -0.2128 C   0  0  0  0  0  0
   -4.8148    4.3685   -0.5981 C   0  0  0  0  0  0
   -6.3058    4.2962   -0.9824 C   0  0  0  0  0  0
   -6.6587    3.5102   -2.2661 C   0  0  0  0  0  0
   -6.2512    4.1883   -3.5907 C   0  0  0  0  0  0
   -4.8343    3.8642   -4.1046 C   0  0  0  0  0  0
   -4.7178    2.5834   -4.9562 C   0  0  0  0  0  0
   -4.8591    1.3461   -4.1980 N   0  0  0  0  0  0
   -0.3853   -0.2174    0.6563 C   0  0  2  0  0  0
   -0.5552   -0.3296    2.0568 O   0  0  0  0  0  0
    1.0511   -0.6901    0.3455 C   0  0  0  0  0  0
    1.1601   -2.1442    0.4534 N   0  0  0  0  0  0
    2.4905   -2.6708    0.1560 C   0  0  0  0  0  0
    3.5162   -2.3553    1.2319 C   0  0  0  0  0  0
    3.2499   -2.6582    2.5846 C   0  0  0  0  0  0
    4.1983   -2.3604    3.5870 C   0  0  0  0  0  0
    5.4233   -1.7589    3.2232 C   0  0  0  0  0  0
    5.6966   -1.4633    1.8740 C   0  0  0  0  0  0
    4.7456   -1.7616    0.8799 C   0  0  0  0  0  0
    3.8922   -2.6829    5.0443 C   0  0  0  0  0  0
    3.7808   -1.4067    5.8926 C   0  0  0  0  0  0
    4.9106   -3.6699    5.6364 C   0  0  0  0  0  0
   -0.2385    1.8755    1.0351 H   0  0  0  0  0  0
   -2.2201    3.3229   -0.9228 H   0  0  0  0  0  0
   -1.1036   -0.8851    0.1823 H   0  0  0  0  0  0
   -1.4268   -4.8592   -0.2969 H   0  0  0  0  0  0
   -1.7335   -5.1933   -2.0021 H   0  0  0  0  0  0
   -3.0870   -4.9147   -0.8910 H   0  0  0  0  0  0
   -2.4812   -3.3577   -3.4056 H   0  0  0  0  0  0
   -3.8408   -3.1024   -2.3175 H   0  0  0  0  0  0
   -4.7107   -1.2078   -3.5924 H   0  0  0  0  0  0
   -2.4682    2.4822   -3.4893 H   0  0  0  0  0  0
   -0.6964   -1.1406   -2.0315 H   0  0  0  0  0  0
    0.8106    2.2699   -0.7629 H   0  0  0  0  0  0
   -2.7371    0.8613   -0.3591 H   0  0  0  0  0  0
   -2.6023    1.2798    1.3012 H   0  0  0  0  0  0
   -2.7142    3.7152    2.0730 H   0  0  0  0  0  0
   -2.5118    4.9963    0.8805 H   0  0  0  0  0  0
   -1.1667    3.9517    1.2652 H   0  0  0  0  0  0
   -4.4352    2.2883   -1.0020 H   0  0  0  0  0  0
   -4.7138    2.6312    0.6802 H   0  0  0  0  0  0
   -4.7288    5.0403    0.2557 H   0  0  0  0  0  0
   -4.2381    4.8411   -1.3902 H   0  0  0  0  0  0
   -6.8507    3.8537   -0.1476 H   0  0  0  0  0  0
   -6.6950    5.3107   -1.0742 H   0  0  0  0  0  0
   -6.2942    2.4860   -2.2180 H   0  0  0  0  0  0
   -7.7450    3.4151   -2.2805 H   0  0  0  0  0  0
   -6.9691    3.9184   -4.3661 H   0  0  0  0  0  0
   -6.3514    5.2680   -3.4745 H   0  0  0  0  0  0
   -4.5257    4.6932   -4.7421 H   0  0  0  0  0  0
   -4.1183    3.8523   -3.2893 H   0  0  0  0  0  0
   -5.4776    2.5922   -5.7379 H   0  0  0  0  0  0
   -3.7592    2.5743   -5.4765 H   0  0  0  0  0  0
   -5.6533    0.7634   -4.4208 H   0  0  0  0  0  0
    0.0937    0.2099    2.4816 H   0  0  0  0  0  0
    1.3260   -0.4093   -0.6705 H   0  0  0  0  0  0
    1.7641   -0.1936    1.0049 H   0  0  0  0  0  0
    0.4658   -2.5942   -0.1351 H   0  0  0  0  0  0
    2.4360   -3.7563    0.0716 H   0  0  0  0  0  0
    2.8349   -2.3068   -0.8128 H   0  0  0  0  0  0
    2.3080   -3.1154    2.8519 H   0  0  0  0  0  0
    6.1592   -1.5215    3.9771 H   0  0  0  0  0  0
    6.6368   -1.0066    1.6017 H   0  0  0  0  0  0
    4.9623   -1.5297   -0.1527 H   0  0  0  0  0  0
    2.9188   -3.1741    5.0765 H   0  0  0  0  0  0
    3.0155   -0.7389    5.4955 H   0  0  0  0  0  0
    4.7223   -0.8573    5.9179 H   0  0  0  0  0  0
    3.5091   -1.6434    6.9218 H   0  0  0  0  0  0
    4.9455   -4.5923    5.0560 H   0  0  0  0  0  0
    4.6466   -3.9353    6.6604 H   0  0  0  0  0  0
    5.9163   -3.2496    5.6550 H   0  0  0  0  0  0
  1  2  1  0  0  0
  1 42  1  0  0  0
  1 43  1  0  0  0
  1 44  1  0  0  0
  2  3  1  0  0  0
  3  4  1  0  0  0
  3 45  1  0  0  0
  3 46  1  0  0  0
  4  9  1  0  0  0
  4  5  2  0  0  0
  5  6  1  0  0  0
  5 47  1  0  0  0
  6 24  1  0  0  0
  6  7  2  0  0  0
  7  8  1  0  0  0
  7 48  1  0  0  0
  8  9  2  0  0  0
  8 10  1  0  0  0
  9 49  1  0  0  0
 10 11  2  0  0  0
 10 12  1  0  0  0
 12 13  1  0  0  0
 12 50  1  0  0  0
 13 39  1  0  0  0
 13 14  1  0  0  0
 13 25  1  0  0  0
 14 15  1  0  0  0
 14 51  1  0  0  0
 14 52  1  0  0  0
 15 40  1  0  0  0
 15 16  1  0  0  0
 15 17  1  0  0  0
 16 53  1  0  0  0
 16 54  1  0  0  0
 16 55  1  0  0  0
 17 18  1  0  0  0
 17 56  1  0  0  0
 17 57  1  0  0  0
 18 19  1  0  0  0
 18 58  1  0  0  0
 18 59  1  0  0  0
 19 20  1  0  0  0
 19 60  1  0  0  0
 19 61  1  0  0  0
 20 21  1  0  0  0
 20 62  1  0  0  0
 20 63  1  0  0  0
 21 22  1  0  0  0
 21 64  1  0  0  0
 21 65  1  0  0  0
 22 23  1  0  0  0
 22 66  1  0  0  0
 22 67  1  0  0  0
 23 24  1  0  0  0
 23 68  1  0  0  0
 23 69  1  0  0  0
 24 70  1  0  0  0
 25 41  1  0  0  0
 25 26  1  0  0  0
 25 27  1  0  0  0
 26 71  1  0  0  0
 27 28  1  0  0  0
 27 72  1  0  0  0
 27 73  1  0  0  0
 28 29  1  0  0  0
 28 74  1  0  0  0
 29 30  1  0  0  0
 29 75  1  0  0  0
 29 76  1  0  0  0
 30 35  1  0  0  0
 30 31  2  0  0  0
 31 32  1  0  0  0
 31 77  1  0  0  0
 32 33  2  0  0  0
 32 36  1  0  0  0
 33 34  1  0  0  0
 33 78  1  0  0  0
 34 35  2  0  0  0
 34 79  1  0  0  0
 35 80  1  0  0  0
 36 37  1  0  0  0
 36 38  1  0  0  0
 36 81  1  0  0  0
 37 82  1  0  0  0
 37 83  1  0  0  0
 37 84  1  0  0  0
 38 85  1  0  0  0
 38 86  1  0  0  0
 38 87  1  0  0  0
M  END
> <s_m_source_file>
BACE_9.smi

> <i_m_source_file_index>
1

> <i_lp_mmshare_version>
42013

> <i_f3d_flags>
0

> <s_epik_input>
W2NIXTFbY0hdW2NIXWMoW0NIXShbQ0gzXSlbQ0gzXSlbY0hdYzFbQ0gyXVtOSF1bQ0gyXVtDQEBIXShbT0hdKVtDQEBIXShbTkhdQyg9TyljKFtjSF0yKVtjSF1jKFtjSF1jMjMpW0NIMl1PW0NIM10pW0NIMl1bQ0BIXShbQ0gzXSlbQ0gyXVtDSDJdW0NIMl1bQ0gyXVtDSDJdW0NIMl1bQ0gyXVtOSF0z

> <s_epik_cmdline>
J2VwaWtfcHl0aG9uJywgJy1waCcsICc3LjAnLCAnLXRuJywgJzgnLCAnLW1hJywgJzIwMCcsICctaW1hZScsICc8aW5maWxlLm1hZT4nLCAnLW9tYWUnLCAnPG91dGZpbGUubWFlPic=

> <r_epik_Ionization_Penalty>
2.12998

> <r_epik_Ionization_Penalty_Charging>
0

> <r_epik_Ionization_Penalty_Neutral>
2.12998

> <r_epik_State_Penalty>
2.26762

> <r_epik_Charging_Adjusted_Penalty>
2.26762

> <i_epik_Tot_Q>
0

> <i_epik_Tot_abs_Q>
0

> <s_lp_Force_Field>
OPLS_2005

> <r_lp_Energy>
48.0441

> <b_lp_Chiralities_Consistent>
1

> <s_lp_Variant>
BACE_9.smi:1-2

$$$$
