BACE_46.smi:1
                    3D
 Structure written by MMmdl.
 78 80  0  0  1  0            999 V2000
   -0.7806    3.8787   -3.5341 C   0  0  0  0  0  0
   -0.2434    4.4499   -2.2102 C   0  0  0  0  0  0
    1.2645    4.7295   -2.2790 C   0  0  0  0  0  0
   -0.5701    3.5727   -1.0077 C   0  0  0  0  0  0
   -1.0680    4.1622    0.1738 C   0  0  0  0  0  0
   -1.3352    3.3696    1.3059 C   0  0  0  0  0  0
   -1.1041    1.9819    1.2660 C   0  0  0  0  0  0
   -0.6100    1.3801    0.0899 C   0  0  0  0  0  0
   -0.3527   -0.1147    0.0494 C   0  0  0  0  0  0
    1.0951   -0.4022    0.0983 N   0  3  0  0  0  0
    1.6794   -0.8336   -1.1893 C   0  0  0  0  0  0
    3.2185   -0.9190   -1.1143 C   0  0  1  0  0  0
    3.5255   -1.8979   -0.1381 O   0  0  0  0  0  0
    3.9048   -1.3412   -2.4464 C   0  0  2  0  0  0
    5.4538   -1.2441   -2.3848 C   0  0  0  0  0  0
    6.1998   -2.2800   -3.2661 C   0  0  2  0  0  0
    6.9967   -3.2618   -2.3906 C   0  0  0  0  0  0
    7.1176   -1.6330   -4.3258 C   0  0  0  0  0  0
    6.3447   -1.1555   -5.5383 C   0  0  0  0  0  0
    6.3918   -1.7579   -6.7380 C   0  0  0  0  0  0
    5.5527   -1.3660   -7.9350 C   0  0  0  0  0  0
    4.5234   -2.4642   -8.2486 C   0  0  0  0  0  0
    3.4682   -2.0899   -9.3028 C   0  0  0  0  0  0
    2.2717   -1.2879   -8.7569 C   0  0  0  0  0  0
    2.5072    0.1489   -8.7473 N   0  0  0  0  0  0
    2.4393    0.8662   -7.5461 C   0  0  0  0  0  0
    2.8643    0.3299   -6.3073 C   0  0  0  0  0  0
    2.8303    1.1538   -5.1587 C   0  0  0  0  0  0
    2.3435    2.4703   -5.3039 C   0  0  0  0  0  0
    1.9214    2.9110   -6.5718 C   0  0  0  0  0  0
    1.3280    4.5216   -6.7392 Cl  0  0  0  0  0  0
    1.9760    2.1276   -7.6685 N   0  0  0  0  0  0
    3.3659    0.6903   -3.8323 C   0  0  0  0  0  0
    3.7277    1.5083   -2.9862 O   0  0  0  0  0  0
    3.3829   -0.6409   -3.6277 N   0  0  0  0  0  0
   -0.3469    2.1783   -1.0434 C   0  0  0  0  0  0
    3.6187    0.0383   -0.7779 H   0  0  0  0  0  0
    3.6350   -2.3866   -2.6038 H   0  0  0  0  0  0
    5.4688   -2.8862   -3.8033 H   0  0  0  0  0  0
   -1.8546    3.6990   -3.4770 H   0  0  0  0  0  0
   -0.2969    2.9406   -3.8053 H   0  0  0  0  0  0
   -0.6106    4.5773   -4.3535 H   0  0  0  0  0  0
   -0.7436    5.4079   -2.0607 H   0  0  0  0  0  0
    1.6052    5.2530   -1.3853 H   0  0  0  0  0  0
    1.5134    5.3504   -3.1401 H   0  0  0  0  0  0
    1.8361    3.8045   -2.3536 H   0  0  0  0  0  0
   -1.2385    5.2279    0.2204 H   0  0  0  0  0  0
   -1.7124    3.8282    2.2081 H   0  0  0  0  0  0
   -1.3080    1.3836    2.1421 H   0  0  0  0  0  0
   -0.8220   -0.5861    0.9135 H   0  0  0  0  0  0
   -0.8184   -0.5545   -0.8339 H   0  0  0  0  0  0
    1.5731    0.4285    0.4172 H   0  0  0  0  0  0
    1.2545   -1.7967   -1.4760 H   0  0  0  0  0  0
    1.3795   -0.1171   -1.9519 H   0  0  0  0  0  0
    4.4657   -1.9558   -0.0549 H   0  0  0  0  0  0
    5.7799   -0.2320   -2.6255 H   0  0  0  0  0  0
    5.7775   -1.3748   -1.3520 H   0  0  0  0  0  0
    7.7870   -2.7515   -1.8391 H   0  0  0  0  0  0
    7.4629   -4.0407   -2.9946 H   0  0  0  0  0  0
    6.3490   -3.7571   -1.6665 H   0  0  0  0  0  0
    7.6882   -0.8054   -3.9033 H   0  0  0  0  0  0
    7.8534   -2.3629   -4.6665 H   0  0  0  0  0  0
    5.6947   -0.3066   -5.3900 H   0  0  0  0  0  0
    7.0240   -2.6240   -6.8718 H   0  0  0  0  0  0
    5.0683   -0.4118   -7.7390 H   0  0  0  0  0  0
    6.2080   -1.2070   -8.7919 H   0  0  0  0  0  0
    5.0661   -3.3438   -8.5975 H   0  0  0  0  0  0
    4.0180   -2.7755   -7.3333 H   0  0  0  0  0  0
    3.9257   -1.5880  -10.1566 H   0  0  0  0  0  0
    3.0685   -3.0251   -9.6965 H   0  0  0  0  0  0
    1.4212   -1.4469   -9.4201 H   0  0  0  0  0  0
    1.9546   -1.6647   -7.7845 H   0  0  0  0  0  0
    2.2065    0.6459   -9.5736 H   0  0  0  0  0  0
    3.2534   -0.6753   -6.2492 H   0  0  0  0  0  0
    2.3062    3.1471   -4.4648 H   0  0  0  0  0  0
    3.0444   -1.2248   -4.3791 H   0  0  0  0  0  0
    0.0409    1.7189   -1.9393 H   0  0  0  0  0  0
    1.2553   -1.1401    0.7693 H   0  0  0  0  0  0
  1  2  1  0  0  0
  1 40  1  0  0  0
  1 41  1  0  0  0
  1 42  1  0  0  0
  2  3  1  0  0  0
  2  4  1  0  0  0
  2 43  1  0  0  0
  3 44  1  0  0  0
  3 45  1  0  0  0
  3 46  1  0  0  0
  4 36  1  0  0  0
  4  5  2  0  0  0
  5  6  1  0  0  0
  5 47  1  0  0  0
  6  7  2  0  0  0
  6 48  1  0  0  0
  7  8  1  0  0  0
  7 49  1  0  0  0
  8  9  1  0  0  0
  8 36  2  0  0  0
  9 10  1  0  0  0
  9 50  1  0  0  0
  9 51  1  0  0  0
 10 11  1  0  0  0
 10 52  1  0  0  0
 10 78  1  0  0  0
 11 12  1  0  0  0
 11 53  1  0  0  0
 11 54  1  0  0  0
 12 37  1  0  0  0
 12 13  1  0  0  0
 12 14  1  0  0  0
 13 55  1  0  0  0
 14 38  1  0  0  0
 14 35  1  0  0  0
 14 15  1  0  0  0
 15 16  1  0  0  0
 15 56  1  0  0  0
 15 57  1  0  0  0
 16 39  1  0  0  0
 16 17  1  0  0  0
 16 18  1  0  0  0
 17 58  1  0  0  0
 17 59  1  0  0  0
 17 60  1  0  0  0
 18 19  1  0  0  0
 18 61  1  0  0  0
 18 62  1  0  0  0
 19 20  2  0  0  0
 19 63  1  0  0  0
 20 21  1  0  0  0
 20 64  1  0  0  0
 21 22  1  0  0  0
 21 65  1  0  0  0
 21 66  1  0  0  0
 22 23  1  0  0  0
 22 67  1  0  0  0
 22 68  1  0  0  0
 23 24  1  0  0  0
 23 69  1  0  0  0
 23 70  1  0  0  0
 24 25  1  0  0  0
 24 71  1  0  0  0
 24 72  1  0  0  0
 25 26  1  0  0  0
 25 73  1  0  0  0
 26 32  1  0  0  0
 26 27  2  0  0  0
 27 28  1  0  0  0
 27 74  1  0  0  0
 28 29  2  0  0  0
 28 33  1  0  0  0
 29 30  1  0  0  0
 29 75  1  0  0  0
 30 31  1  0  0  0
 30 32  2  0  0  0
 33 34  2  0  0  0
 33 35  1  0  0  0
 35 76  1  0  0  0
 36 77  1  0  0  0
M  CHG  1  10   1
M  END
> <s_m_source_file>
BACE_46.smi

> <i_m_source_file_index>
1

> <i_lp_mmshare_version>
42013

> <i_f3d_flags>
0

> <s_epik_input>
W0NIM11bQ0hdKFtDSDNdKWMxW2NIXVtjSF1bY0hdYyhbY0hdMSlbQ0gyXVtOSF1bQ0gyXVtDQEBIXShbT0hdKVtDQEBIXShbTkhdQyg9TyljKFtjSF1jMjMpW2NIXWMoQ2wpbjMpW0NIMl1bQ0BIXShbQ0gzXSlbQ0gyXS9bQ0hdPVtDSF0vW0NIMl1bQ0gyXVtDSDJdW0NIMl1bTkhdMg==

> <s_epik_cmdline>
J2VwaWtfcHl0aG9uJywgJy1waCcsICc3LjAnLCAnLXRuJywgJzgnLCAnLW1hJywgJzIwMCcsICctaW1hZScsICc8aW5maWxlLm1hZT4nLCAnLW9tYWUnLCAnPG91dGZpbGUubWFlPic=

> <r_lp_tautomer_probability>
1

> <r_epik_Ionization_Penalty>
0.0174904

> <r_epik_Ionization_Penalty_Charging>
0.0174863

> <r_epik_Ionization_Penalty_Neutral>
4.08123e-06

> <r_epik_State_Penalty>
0.0138622

> <r_epik_Charging_Adjusted_Penalty>
0.0313485

> <i_epik_Tot_Q>
1

> <i_epik_Tot_abs_Q>
1

> <s_lp_Force_Field>
OPLS_2005

> <r_lp_Energy>
24.6807

> <b_lp_Chiralities_Consistent>
1

> <s_lp_Variant>
BACE_46.smi:1-1

$$$$
BACE_46.smi:1
                    3D
 Structure written by MMmdl.
 77 79  0  0  1  0            999 V2000
   -2.0662    5.6528   -1.7140 C   0  0  0  0  0  0
   -2.7070    4.2594   -1.8128 C   0  0  0  0  0  0
   -4.2281    4.3177   -1.6013 C   0  0  0  0  0  0
   -2.0462    3.2676   -0.8635 C   0  0  0  0  0  0
   -2.0792    3.4761    0.5330 C   0  0  0  0  0  0
   -1.4643    2.5564    1.4037 C   0  0  0  0  0  0
   -0.8136    1.4213    0.8849 C   0  0  0  0  0  0
   -0.7757    1.2032   -0.5078 C   0  0  0  0  0  0
   -0.0757   -0.0200   -1.0705 C   0  0  0  0  0  0
    1.3602   -0.0340   -0.8029 N   0  0  0  0  0  0
    2.1256    0.9358   -1.5888 C   0  0  0  0  0  0
    3.6467    0.8232   -1.3412 C   0  0  1  0  0  0
    3.8982    1.3620   -0.0582 O   0  0  0  0  0  0
    4.2543   -0.6062   -1.4568 C   0  0  2  0  0  0
    5.8075   -0.6124   -1.4258 C   0  0  0  0  0  0
    6.4483   -1.9065   -0.8534 C   0  0  2  0  0  0
    7.3355   -1.5741    0.3591 C   0  0  0  0  0  0
    7.2569   -2.7149   -1.8933 C   0  0  0  0  0  0
    6.3811   -3.5520   -2.8034 C   0  0  0  0  0  0
    6.2562   -4.8863   -2.7066 C   0  0  0  0  0  0
    5.3340   -5.7317   -3.5600 C   0  0  0  0  0  0
    4.1742   -6.2902   -2.7192 C   0  0  0  0  0  0
    3.0691   -6.9990   -3.5219 C   0  0  0  0  0  0
    1.9923   -6.0654   -4.1089 C   0  0  0  0  0  0
    2.3449   -5.5344   -5.4190 N   0  0  0  0  0  0
    2.5020   -4.1548   -5.6071 C   0  0  0  0  0  0
    3.0007   -3.2982   -4.5988 C   0  0  0  0  0  0
    3.1964   -1.9304   -4.8963 C   0  0  0  0  0  0
    2.8483   -1.4767   -6.1868 C   0  0  0  0  0  0
    2.3391   -2.3986   -7.1214 C   0  0  0  0  0  0
    1.9167   -1.8412   -8.6980 Cl  0  0  0  0  0  0
    2.1787   -3.7088   -6.8391 N   0  0  0  0  0  0
    3.8228   -0.9889   -3.9062 C   0  0  0  0  0  0
    4.3468    0.0580   -4.2870 O   0  0  0  0  0  0
    3.7371   -1.3491   -2.6116 N   0  0  0  0  0  0
   -1.3926    2.1267   -1.3773 C   0  0  0  0  0  0
    4.1487    1.4798   -2.0524 H   0  0  0  0  0  0
    3.9024   -1.1576   -0.5841 H   0  0  0  0  0  0
    5.6606   -2.5589   -0.4740 H   0  0  0  0  0  0
   -0.9948    5.6050   -1.9109 H   0  0  0  0  0  0
   -2.2043    6.0920   -0.7256 H   0  0  0  0  0  0
   -2.5040    6.3368   -2.4416 H   0  0  0  0  0  0
   -2.5392    3.9045   -2.8304 H   0  0  0  0  0  0
   -4.6782    3.3322   -1.7250 H   0  0  0  0  0  0
   -4.6982    4.9863   -2.3231 H   0  0  0  0  0  0
   -4.4829    4.6777   -0.6042 H   0  0  0  0  0  0
   -2.5764    4.3427    0.9428 H   0  0  0  0  0  0
   -1.4921    2.7216    2.4705 H   0  0  0  0  0  0
   -0.3429    0.7189    1.5573 H   0  0  0  0  0  0
   -0.5350   -0.8955   -0.6110 H   0  0  0  0  0  0
   -0.2649   -0.1057   -2.1413 H   0  0  0  0  0  0
    1.7277   -0.9683   -0.9505 H   0  0  0  0  0  0
    1.9251    0.7794   -2.6488 H   0  0  0  0  0  0
    1.7907    1.9509   -1.3709 H   0  0  0  0  0  0
    3.3965    0.8696    0.5735 H   0  0  0  0  0  0
    6.2145   -0.3864   -2.4115 H   0  0  0  0  0  0
    6.1360    0.2286   -0.8147 H   0  0  0  0  0  0
    8.1764   -0.9414    0.0730 H   0  0  0  0  0  0
    7.7392   -2.4784    0.8156 H   0  0  0  0  0  0
    6.7684   -1.0492    1.1287 H   0  0  0  0  0  0
    7.8887   -2.0611   -2.4953 H   0  0  0  0  0  0
    7.9361   -3.3949   -1.3769 H   0  0  0  0  0  0
    5.8151   -3.0161   -3.5491 H   0  0  0  0  0  0
    6.8086   -5.4163   -1.9442 H   0  0  0  0  0  0
    4.9677   -5.1369   -4.3936 H   0  0  0  0  0  0
    5.9086   -6.5480   -3.9984 H   0  0  0  0  0  0
    4.5907   -6.9991   -2.0026 H   0  0  0  0  0  0
    3.7283   -5.4965   -2.1181 H   0  0  0  0  0  0
    3.4949   -7.6451   -4.2908 H   0  0  0  0  0  0
    2.5588   -7.6703   -2.8303 H   0  0  0  0  0  0
    1.0819   -6.6461   -4.2578 H   0  0  0  0  0  0
    1.7208   -5.2808   -3.4024 H   0  0  0  0  0  0
    1.9971   -6.0531   -6.2128 H   0  0  0  0  0  0
    3.2715   -3.6908   -3.6310 H   0  0  0  0  0  0
    2.9794   -0.4416   -6.4682 H   0  0  0  0  0  0
    3.2773   -2.2247   -2.4088 H   0  0  0  0  0  0
   -1.3609    1.9578   -2.4439 H   0  0  0  0  0  0
  1  2  1  0  0  0
  1 40  1  0  0  0
  1 41  1  0  0  0
  1 42  1  0  0  0
  2  3  1  0  0  0
  2  4  1  0  0  0
  2 43  1  0  0  0
  3 44  1  0  0  0
  3 45  1  0  0  0
  3 46  1  0  0  0
  4 36  1  0  0  0
  4  5  2  0  0  0
  5  6  1  0  0  0
  5 47  1  0  0  0
  6  7  2  0  0  0
  6 48  1  0  0  0
  7  8  1  0  0  0
  7 49  1  0  0  0
  8  9  1  0  0  0
  8 36  2  0  0  0
  9 10  1  0  0  0
  9 50  1  0  0  0
  9 51  1  0  0  0
 10 11  1  0  0  0
 10 52  1  0  0  0
 11 12  1  0  0  0
 11 53  1  0  0  0
 11 54  1  0  0  0
 12 37  1  0  0  0
 12 13  1  0  0  0
 12 14  1  0  0  0
 13 55  1  0  0  0
 14 38  1  0  0  0
 14 35  1  0  0  0
 14 15  1  0  0  0
 15 16  1  0  0  0
 15 56  1  0  0  0
 15 57  1  0  0  0
 16 39  1  0  0  0
 16 17  1  0  0  0
 16 18  1  0  0  0
 17 58  1  0  0  0
 17 59  1  0  0  0
 17 60  1  0  0  0
 18 19  1  0  0  0
 18 61  1  0  0  0
 18 62  1  0  0  0
 19 20  2  0  0  0
 19 63  1  0  0  0
 20 21  1  0  0  0
 20 64  1  0  0  0
 21 22  1  0  0  0
 21 65  1  0  0  0
 21 66  1  0  0  0
 22 23  1  0  0  0
 22 67  1  0  0  0
 22 68  1  0  0  0
 23 24  1  0  0  0
 23 69  1  0  0  0
 23 70  1  0  0  0
 24 25  1  0  0  0
 24 71  1  0  0  0
 24 72  1  0  0  0
 25 26  1  0  0  0
 25 73  1  0  0  0
 26 32  1  0  0  0
 26 27  2  0  0  0
 27 28  1  0  0  0
 27 74  1  0  0  0
 28 29  2  0  0  0
 28 33  1  0  0  0
 29 30  1  0  0  0
 29 75  1  0  0  0
 30 31  1  0  0  0
 30 32  2  0  0  0
 33 34  2  0  0  0
 33 35  1  0  0  0
 35 76  1  0  0  0
 36 77  1  0  0  0
M  END
> <s_m_source_file>
BACE_46.smi

> <i_m_source_file_index>
1

> <i_lp_mmshare_version>
42013

> <i_f3d_flags>
0

> <s_epik_input>
W0NIM11bQ0hdKFtDSDNdKWMxW2NIXVtjSF1bY0hdYyhbY0hdMSlbQ0gyXVtOSF1bQ0gyXVtDQEBIXShbT0hdKVtDQEBIXShbTkhdQyg9TyljKFtjSF1jMjMpW2NIXWMoQ2wpbjMpW0NIMl1bQ0BIXShbQ0gzXSlbQ0gyXS9bQ0hdPVtDSF0vW0NIMl1bQ0gyXVtDSDJdW0NIMl1bTkhdMg==

> <s_epik_cmdline>
J2VwaWtfcHl0aG9uJywgJy1waCcsICc3LjAnLCAnLXRuJywgJzgnLCAnLW1hJywgJzIwMCcsICctaW1hZScsICc8aW5maWxlLm1hZT4nLCAnLW9tYWUnLCAnPG91dGZpbGUubWFlPic=

> <r_lp_tautomer_probability>
1

> <r_epik_Ionization_Penalty>
2.096

> <r_epik_Ionization_Penalty_Charging>
0

> <r_epik_Ionization_Penalty_Neutral>
2.096

> <r_epik_State_Penalty>
2.2318

> <r_epik_Charging_Adjusted_Penalty>
2.2318

> <i_epik_Tot_Q>
0

> <i_epik_Tot_abs_Q>
0

> <s_lp_Force_Field>
OPLS_2005

> <r_lp_Energy>
33.4355

> <b_lp_Chiralities_Consistent>
1

> <s_lp_Variant>
BACE_46.smi:1-2

$$$$
