BACE_35.smi:1
                    3D
 Structure written by MMmdl.
 73 74  0  0  1  0            999 V2000
   -2.7083    0.9733   -2.2205 C   0  0  0  0  0  0
   -2.2151   -0.4488   -1.8885 C   0  0  2  0  0  0
   -2.9166   -1.0913   -0.6671 C   0  0  0  0  0  0
   -4.4565   -0.9952   -0.6738 C   0  0  0  0  0  0
   -4.9712    0.1050    0.2721 C   0  0  0  0  0  0
   -6.4352    0.5167    0.0424 C   0  0  0  0  0  0
   -6.6594    1.4948   -1.1293 C   0  0  0  0  0  0
   -6.2688    2.9562   -0.8349 C   0  0  0  0  0  0
   -4.8592    3.1102   -0.8309 O   0  0  0  0  0  0
   -4.4357    4.4399   -0.5684 C   0  0  0  0  0  0
   -2.9012    4.4820   -0.6266 C   0  0  0  0  0  0
   -2.3831    4.9994   -1.6167 O   0  0  0  0  0  0
   -2.1754    3.9158    0.3730 N   0  0  0  0  0  0
   -2.8194    3.4595    1.6138 C   0  0  0  0  0  0
   -0.7018    3.7899    0.2862 C   0  0  1  0  0  0
   -0.0165    4.8433    1.1763 C   0  0  0  0  0  0
   -0.2138    2.3468    0.5065 C   0  0  0  0  0  0
    0.1436    1.9611    1.6197 O   0  0  0  0  0  0
   -0.2240    1.5562   -0.5788 N   0  0  0  0  0  0
    0.0562    0.1226   -0.6166 C   0  0  1  0  0  0
   -0.6671   -0.5574   -1.8158 C   0  0  0  0  0  0
    1.5877   -0.1258   -0.5707 C   0  0  2  0  0  0
    2.1763    0.2316   -1.8070 O   0  0  0  0  0  0
    1.9505   -1.5934   -0.2781 C   0  0  0  0  0  0
    3.3841   -1.7307    0.0562 N   0  3  0  0  0  0
    3.8336   -3.1109    0.3351 C   0  0  0  0  0  0
    3.8734   -3.9650   -0.9193 C   0  0  0  0  0  0
    2.8364   -4.8771   -1.2132 C   0  0  0  0  0  0
    2.8228   -5.6564   -2.3158 N   0  0  0  0  0  0
    3.8601   -5.5561   -3.1753 C   0  0  0  0  0  0
    4.9463   -4.6810   -2.9737 C   0  0  0  0  0  0
    6.3728   -4.5939   -4.2299 Br  0  0  0  0  0  0
    4.9531   -3.8708   -1.8222 C   0  0  0  0  0  0
   -2.5032   -1.0529   -2.7501 H   0  0  0  0  0  0
   -0.3678    4.0258   -0.7258 H   0  0  0  0  0  0
   -0.3538   -0.3030    0.2996 H   0  0  0  0  0  0
    2.0291    0.4972    0.2085 H   0  0  0  0  0  0
   -2.6855    1.6217   -1.3484 H   0  0  0  0  0  0
   -3.7348    0.9673   -2.5853 H   0  0  0  0  0  0
   -2.0996    1.4334   -2.9991 H   0  0  0  0  0  0
   -2.6369   -2.1450   -0.6344 H   0  0  0  0  0  0
   -2.5396   -0.6645    0.2620 H   0  0  0  0  0  0
   -4.8244   -0.8486   -1.6890 H   0  0  0  0  0  0
   -4.8791   -1.9471   -0.3503 H   0  0  0  0  0  0
   -4.8628   -0.2519    1.2968 H   0  0  0  0  0  0
   -4.3299    0.9776    0.2051 H   0  0  0  0  0  0
   -7.0317   -0.3825   -0.1161 H   0  0  0  0  0  0
   -6.8260    0.9699    0.9540 H   0  0  0  0  0  0
   -6.1582    1.1428   -2.0309 H   0  0  0  0  0  0
   -7.7246    1.4842   -1.3630 H   0  0  0  0  0  0
   -6.6913    3.6018   -1.6062 H   0  0  0  0  0  0
   -6.6899    3.2771    0.1191 H   0  0  0  0  0  0
   -4.8414    5.1102   -1.3282 H   0  0  0  0  0  0
   -4.8072    4.7929    0.3937 H   0  0  0  0  0  0
   -3.4976    2.6293    1.4288 H   0  0  0  0  0  0
   -3.3852    4.2691    2.0756 H   0  0  0  0  0  0
   -2.1031    3.1296    2.3651 H   0  0  0  0  0  0
    1.0691    4.7811    1.0949 H   0  0  0  0  0  0
   -0.2752    4.7184    2.2280 H   0  0  0  0  0  0
   -0.3085    5.8517    0.8815 H   0  0  0  0  0  0
   -0.5286    1.9719   -1.4476 H   0  0  0  0  0  0
   -0.4189   -1.6184   -1.8133 H   0  0  0  0  0  0
   -0.2566   -0.1721   -2.7498 H   0  0  0  0  0  0
    1.9716    1.1373   -1.9858 H   0  0  0  0  0  0
    1.3686   -1.9587    0.5690 H   0  0  0  0  0  0
    1.7030   -2.2247   -1.1317 H   0  0  0  0  0  0
    3.9297   -1.3606   -0.7092 H   0  0  0  0  0  0
    4.8367   -3.0681    0.7603 H   0  0  0  0  0  0
    3.1929   -3.5692    1.0901 H   0  0  0  0  0  0
    1.9910   -4.9800   -0.5488 H   0  0  0  0  0  0
    3.8221   -6.1910   -4.0481 H   0  0  0  0  0  0
    5.7697   -3.1881   -1.6383 H   0  0  0  0  0  0
    3.5636   -1.1697    0.8767 H   0  0  0  0  0  0
  1  2  1  0  0  0
  1 38  1  0  0  0
  1 39  1  0  0  0
  1 40  1  0  0  0
  2 34  1  0  0  0
  2 21  1  0  0  0
  2  3  1  0  0  0
  3  4  1  0  0  0
  3 41  1  0  0  0
  3 42  1  0  0  0
  4  5  1  0  0  0
  4 43  1  0  0  0
  4 44  1  0  0  0
  5  6  1  0  0  0
  5 45  1  0  0  0
  5 46  1  0  0  0
  6  7  1  0  0  0
  6 47  1  0  0  0
  6 48  1  0  0  0
  7  8  1  0  0  0
  7 49  1  0  0  0
  7 50  1  0  0  0
  8  9  1  0  0  0
  8 51  1  0  0  0
  8 52  1  0  0  0
  9 10  1  0  0  0
 10 11  1  0  0  0
 10 53  1  0  0  0
 10 54  1  0  0  0
 11 12  2  0  0  0
 11 13  1  0  0  0
 13 14  1  0  0  0
 13 15  1  0  0  0
 14 55  1  0  0  0
 14 56  1  0  0  0
 14 57  1  0  0  0
 15 35  1  0  0  0
 15 16  1  0  0  0
 15 17  1  0  0  0
 16 58  1  0  0  0
 16 59  1  0  0  0
 16 60  1  0  0  0
 17 18  2  0  0  0
 17 19  1  0  0  0
 19 20  1  0  0  0
 19 61  1  0  0  0
 20 36  1  0  0  0
 20 21  1  0  0  0
 20 22  1  0  0  0
 21 62  1  0  0  0
 21 63  1  0  0  0
 22 37  1  0  0  0
 22 23  1  0  0  0
 22 24  1  0  0  0
 23 64  1  0  0  0
 24 25  1  0  0  0
 24 65  1  0  0  0
 24 66  1  0  0  0
 25 26  1  0  0  0
 25 67  1  0  0  0
 25 73  1  0  0  0
 26 27  1  0  0  0
 26 68  1  0  0  0
 26 69  1  0  0  0
 27 33  1  0  0  0
 27 28  2  0  0  0
 28 29  1  0  0  0
 28 70  1  0  0  0
 29 30  2  0  0  0
 30 31  1  0  0  0
 30 71  1  0  0  0
 31 32  1  0  0  0
 31 33  2  0  0  0
 33 72  1  0  0  0
M  CHG  1  25   1
M  END
> <s_m_source_file>
BACE_35.smi

> <i_m_source_file_index>
1

> <i_lp_mmshare_version>
42013

> <i_f3d_flags>
0

> <s_epik_input>
W0NIM11bQ0BASF0xW0NIMl1bQ0gyXVtDSDJdW0NIMl1bQ0gyXVtDSDJdT1tDSDJdQyg9TylOKFtDSDNdKVtDQEBIXShbQ0gzXSlDKD1PKVtOSF1bQ0BASF0oW0NIMl0xKVtDQEhdKFtPSF0pW0NIMl1bTkhdW0NIMl1jMltjSF1uW2NIXWMoQnIpW2NIXTI=

> <s_epik_cmdline>
J2VwaWtfcHl0aG9uJywgJy1waCcsICc3LjAnLCAnLXRuJywgJzgnLCAnLW1hJywgJzIwMCcsICctaW1hZScsICc8aW5maWxlLm1hZT4nLCAnLW9tYWUnLCAnPG91dGZpbGUubWFlPic=

> <r_epik_Ionization_Penalty>
0.0492019

> <r_epik_Ionization_Penalty_Charging>
0.0491621

> <r_epik_Ionization_Penalty_Neutral>
3.98481e-05

> <r_epik_State_Penalty>
0.0419757

> <r_epik_Charging_Adjusted_Penalty>
0.0911378

> <i_epik_Tot_Q>
1

> <i_epik_Tot_abs_Q>
1

> <s_lp_Force_Field>
OPLS_2005

> <r_lp_Energy>
39.7374

> <b_lp_Chiralities_Consistent>
1

> <s_lp_Variant>
BACE_35.smi:1-1

$$$$
BACE_35.smi:1
                    3D
 Structure written by MMmdl.
 72 73  0  0  1  0            999 V2000
   -2.3464    1.0342   -2.3140 C   0  0  0  0  0  0
   -1.7479   -0.3600   -2.0393 C   0  0  2  0  0  0
   -2.4578   -1.1422   -0.9074 C   0  0  0  0  0  0
   -3.9975   -1.1732   -1.0001 C   0  0  0  0  0  0
   -4.6552   -0.1781   -0.0269 C   0  0  0  0  0  0
   -6.1352    0.1230   -0.3179 C   0  0  0  0  0  0
   -6.3796    1.1534   -1.4395 C   0  0  0  0  0  0
   -6.1420    2.6207   -1.0321 C   0  0  0  0  0  0
   -4.7551    2.8945   -0.9222 O   0  0  0  0  0  0
   -4.4694    4.2338   -0.5464 C   0  0  0  0  0  0
   -2.9438    4.4105   -0.5039 C   0  0  0  0  0  0
   -2.4184    5.0426   -1.4210 O   0  0  0  0  0  0
   -2.2291    3.8340    0.4979 N   0  0  0  0  0  0
   -2.8999    3.2390    1.6637 C   0  0  0  0  0  0
   -0.7473    3.8316    0.4907 C   0  0  1  0  0  0
   -0.1996    4.8773    1.4792 C   0  0  0  0  0  0
   -0.1530    2.4209    0.6516 C   0  0  0  0  0  0
    0.1580    1.9873    1.7610 O   0  0  0  0  0  0
   -0.0210    1.7125   -0.4810 N   0  0  0  0  0  0
    0.3866    0.3139   -0.5931 C   0  0  1  0  0  0
   -0.2034   -0.3409   -1.8759 C   0  0  0  0  0  0
    1.9286    0.1908   -0.4720 C   0  0  2  0  0  0
    2.5385    0.6942   -1.6454 O   0  0  0  0  0  0
    2.3936   -1.2665   -0.2853 C   0  0  0  0  0  0
    3.6650   -1.3310    0.4333 N   0  0  0  0  0  0
    4.1593   -2.6872    0.6567 C   0  0  0  0  0  0
    4.7372   -3.3216   -0.5948 C   0  0  0  0  0  0
    4.2343   -4.5465   -1.0833 C   0  0  0  0  0  0
    4.7103   -5.1569   -2.1903 N   0  0  0  0  0  0
    5.7204   -4.5576   -2.8577 C   0  0  0  0  0  0
    6.2961   -3.3365   -2.4533 C   0  0  0  0  0  0
    7.7190   -2.5549   -3.4461 Br  0  0  0  0  0  0
    5.7952   -2.7073   -1.2977 C   0  0  0  0  0  0
   -1.9300   -0.9267   -2.9536 H   0  0  0  0  0  0
   -0.3814    4.1577   -0.4846 H   0  0  0  0  0  0
   -0.0338   -0.2077    0.2671 H   0  0  0  0  0  0
    2.2681    0.7853    0.3777 H   0  0  0  0  0  0
   -2.4287    1.6253   -1.4054 H   0  0  0  0  0  0
   -3.3465    0.9651   -2.7399 H   0  0  0  0  0  0
   -1.7392    1.5944   -3.0253 H   0  0  0  0  0  0
   -2.0899   -2.1688   -0.9275 H   0  0  0  0  0  0
   -2.1706   -0.7530    0.0689 H   0  0  0  0  0  0
   -4.3205   -0.9973   -2.0260 H   0  0  0  0  0  0
   -4.3533   -2.1744   -0.7543 H   0  0  0  0  0  0
   -4.5704   -0.5846    0.9815 H   0  0  0  0  0  0
   -4.0892    0.7470   -0.0086 H   0  0  0  0  0  0
   -6.6417   -0.8105   -0.5658 H   0  0  0  0  0  0
   -6.6130    0.4811    0.5945 H   0  0  0  0  0  0
   -5.7955    0.9072   -2.3263 H   0  0  0  0  0  0
   -7.4237    1.0646   -1.7416 H   0  0  0  0  0  0
   -6.5711    3.2770   -1.7907 H   0  0  0  0  0  0
   -6.6501    2.8414   -0.0921 H   0  0  0  0  0  0
   -4.8886    4.9192   -1.2851 H   0  0  0  0  0  0
   -4.9270    4.4847    0.4106 H   0  0  0  0  0  0
   -3.4815    2.3634    1.3837 H   0  0  0  0  0  0
   -3.5684    3.9590    2.1365 H   0  0  0  0  0  0
   -2.2015    2.9281    2.4393 H   0  0  0  0  0  0
    0.8904    4.9051    1.4571 H   0  0  0  0  0  0
   -0.5034    4.6660    2.5047 H   0  0  0  0  0  0
   -0.5565    5.8762    1.2274 H   0  0  0  0  0  0
   -0.2964    2.1634   -1.3416 H   0  0  0  0  0  0
    0.1430   -1.3735   -1.9234 H   0  0  0  0  0  0
    0.2233    0.1416   -2.7560 H   0  0  0  0  0  0
    2.3025    1.6046   -1.7373 H   0  0  0  0  0  0
    1.6441   -1.8078    0.2929 H   0  0  0  0  0  0
    2.4613   -1.7756   -1.2479 H   0  0  0  0  0  0
    3.5973   -0.8332    1.3153 H   0  0  0  0  0  0
    4.9557   -2.6606    1.4007 H   0  0  0  0  0  0
    3.3733   -3.3177    1.0746 H   0  0  0  0  0  0
    3.4266   -5.0518   -0.5744 H   0  0  0  0  0  0
    6.0808   -5.0679   -3.7386 H   0  0  0  0  0  0
    6.2137   -1.7707   -0.9588 H   0  0  0  0  0  0
  1  2  1  0  0  0
  1 38  1  0  0  0
  1 39  1  0  0  0
  1 40  1  0  0  0
  2 34  1  0  0  0
  2 21  1  0  0  0
  2  3  1  0  0  0
  3  4  1  0  0  0
  3 41  1  0  0  0
  3 42  1  0  0  0
  4  5  1  0  0  0
  4 43  1  0  0  0
  4 44  1  0  0  0
  5  6  1  0  0  0
  5 45  1  0  0  0
  5 46  1  0  0  0
  6  7  1  0  0  0
  6 47  1  0  0  0
  6 48  1  0  0  0
  7  8  1  0  0  0
  7 49  1  0  0  0
  7 50  1  0  0  0
  8  9  1  0  0  0
  8 51  1  0  0  0
  8 52  1  0  0  0
  9 10  1  0  0  0
 10 11  1  0  0  0
 10 53  1  0  0  0
 10 54  1  0  0  0
 11 12  2  0  0  0
 11 13  1  0  0  0
 13 14  1  0  0  0
 13 15  1  0  0  0
 14 55  1  0  0  0
 14 56  1  0  0  0
 14 57  1  0  0  0
 15 35  1  0  0  0
 15 16  1  0  0  0
 15 17  1  0  0  0
 16 58  1  0  0  0
 16 59  1  0  0  0
 16 60  1  0  0  0
 17 18  2  0  0  0
 17 19  1  0  0  0
 19 20  1  0  0  0
 19 61  1  0  0  0
 20 36  1  0  0  0
 20 21  1  0  0  0
 20 22  1  0  0  0
 21 62  1  0  0  0
 21 63  1  0  0  0
 22 37  1  0  0  0
 22 23  1  0  0  0
 22 24  1  0  0  0
 23 64  1  0  0  0
 24 25  1  0  0  0
 24 65  1  0  0  0
 24 66  1  0  0  0
 25 26  1  0  0  0
 25 67  1  0  0  0
 26 27  1  0  0  0
 26 68  1  0  0  0
 26 69  1  0  0  0
 27 33  1  0  0  0
 27 28  2  0  0  0
 28 29  1  0  0  0
 28 70  1  0  0  0
 29 30  2  0  0  0
 30 31  1  0  0  0
 30 71  1  0  0  0
 31 32  1  0  0  0
 31 33  2  0  0  0
 33 72  1  0  0  0
M  END
> <s_m_source_file>
BACE_35.smi

> <i_m_source_file_index>
1

> <i_lp_mmshare_version>
42013

> <i_f3d_flags>
0

> <s_epik_input>
W0NIM11bQ0BASF0xW0NIMl1bQ0gyXVtDSDJdW0NIMl1bQ0gyXVtDSDJdT1tDSDJdQyg9TylOKFtDSDNdKVtDQEBIXShbQ0gzXSlDKD1PKVtOSF1bQ0BASF0oW0NIMl0xKVtDQEhdKFtPSF0pW0NIMl1bTkhdW0NIMl1jMltjSF1uW2NIXWMoQnIpW2NIXTI=

> <s_epik_cmdline>
J2VwaWtfcHl0aG9uJywgJy1waCcsICc3LjAnLCAnLXRuJywgJzgnLCAnLW1hJywgJzIwMCcsICctaW1hZScsICc8aW5maWxlLm1hZT4nLCAnLW9tYWUnLCAnPG91dGZpbGUubWFlPic=

> <r_epik_Ionization_Penalty>
1.49937

> <r_epik_Ionization_Penalty_Charging>
0

> <r_epik_Ionization_Penalty_Neutral>
1.49937

> <r_epik_State_Penalty>
1.58931

> <r_epik_Charging_Adjusted_Penalty>
1.58931

> <i_epik_Tot_Q>
0

> <i_epik_Tot_abs_Q>
0

> <s_lp_Force_Field>
OPLS_2005

> <r_lp_Energy>
42.9726

> <b_lp_Chiralities_Consistent>
1

> <s_lp_Variant>
BACE_35.smi:1-2

$$$$
