BACE_27.smi:1
                    3D
 Structure written by MMmdl.
 93 94  0  0  1  0            999 V2000
   -4.8385   -0.0017    0.1506 C   0  0  0  0  0  0
   -4.3527    0.6791   -1.1429 C   0  0  2  0  0  0
   -5.0875    0.1251   -2.3862 C   0  0  0  0  0  0
   -6.6122    0.3768   -2.4462 C   0  0  0  0  0  0
   -7.0911    1.8360   -2.2718 C   0  0  0  0  0  0
   -6.9516    2.7645   -3.4935 C   0  0  0  0  0  0
   -5.5113    3.0173   -3.9743 C   0  0  0  0  0  0
   -5.3506    4.3027   -4.8034 C   0  0  0  0  0  0
   -5.3723    5.6262   -4.0076 C   0  0  0  0  0  0
   -4.0970    5.9120   -3.1789 C   0  0  0  0  0  0
   -4.0789    5.3505   -1.7394 C   0  0  0  0  0  0
   -5.1085    4.8501   -1.2873 O   0  0  0  0  0  0
   -2.9308    5.4454   -1.0134 N   0  0  0  0  0  0
   -1.6739    5.8549   -1.6574 C   0  0  0  0  0  0
   -2.8173    5.0726    0.4220 C   0  0  1  0  0  0
   -3.9858    5.5630    1.3077 C   0  0  0  0  0  0
   -2.4162    3.6083    0.6883 C   0  0  0  0  0  0
   -2.1936    3.2456    1.8433 O   0  0  0  0  0  0
   -2.3041    2.7796   -0.3638 N   0  0  0  0  0  0
   -1.9716    1.3559   -0.3030 C   0  0  1  0  0  0
   -2.8206    0.5552   -1.3231 C   0  0  0  0  0  0
   -0.4395    1.1644   -0.4356 C   0  0  2  0  0  0
   -0.0414    1.3336   -1.7836 O   0  0  0  0  0  0
    0.0227   -0.2282    0.0306 C   0  0  0  0  0  0
    1.5027   -0.3129    0.0708 N   0  3  0  0  0  0
    2.1107   -1.6562    0.2720 C   0  0  0  0  0  0
    3.6165   -1.4406    0.5112 C   0  0  0  0  0  0
    1.4920   -2.3405    1.5130 C   0  0  0  0  0  0
    1.9251   -2.5115   -0.9716 C   0  0  0  0  0  0
    1.4606   -2.1355   -2.2664 C   0  0  0  0  0  0
    1.5331   -3.2879   -2.9949 C   0  0  0  0  0  0
    1.1980   -3.6132   -4.4167 C   0  0  0  0  0  0
    2.4060   -3.7749   -5.3777 C   0  0  0  0  0  0
    3.4325   -2.6376   -5.1901 C   0  0  0  0  0  0
    1.8888   -3.7370   -6.8286 C   0  0  0  0  0  0
    3.1022   -5.1297   -5.1396 C   0  0  0  0  0  0
    2.0209   -4.2938   -2.2276 O   0  0  0  0  0  0
    2.2820   -3.7882   -0.9506 N   0  0  0  0  0  0
   -4.5801    1.7401   -1.0681 H   0  0  0  0  0  0
   -1.9720    5.6421    0.8101 H   0  0  0  0  0  0
   -2.2405    0.9945    0.6897 H   0  0  0  0  0  0
    0.0693    1.9166    0.1699 H   0  0  0  0  0  0
   -4.6255   -1.0708    0.1398 H   0  0  0  0  0  0
   -5.9124    0.1217    0.2871 H   0  0  0  0  0  0
   -4.3662    0.4243    1.0348 H   0  0  0  0  0  0
   -4.6261    0.5256   -3.2856 H   0  0  0  0  0  0
   -4.9144   -0.9501   -2.4452 H   0  0  0  0  0  0
   -7.0009   -0.0158   -3.3863 H   0  0  0  0  0  0
   -7.0858   -0.2270   -1.6722 H   0  0  0  0  0  0
   -8.1543    1.7952   -2.0319 H   0  0  0  0  0  0
   -6.6370    2.2999   -1.3979 H   0  0  0  0  0  0
   -7.5454    2.3779   -4.3224 H   0  0  0  0  0  0
   -7.4111    3.7151   -3.2240 H   0  0  0  0  0  0
   -4.8143    3.0210   -3.1389 H   0  0  0  0  0  0
   -5.2138    2.1798   -4.6041 H   0  0  0  0  0  0
   -4.4160    4.2476   -5.3627 H   0  0  0  0  0  0
   -6.1375    4.3292   -5.5582 H   0  0  0  0  0  0
   -5.4674    6.4331   -4.7349 H   0  0  0  0  0  0
   -6.2718    5.7016   -3.3968 H   0  0  0  0  0  0
   -3.2340    5.5614   -3.7439 H   0  0  0  0  0  0
   -3.9862    6.9933   -3.0898 H   0  0  0  0  0  0
   -1.7514    6.8650   -2.0615 H   0  0  0  0  0  0
   -1.4145    5.1726   -2.4678 H   0  0  0  0  0  0
   -0.8239    5.8511   -0.9750 H   0  0  0  0  0  0
   -3.7137    5.5253    2.3630 H   0  0  0  0  0  0
   -4.8807    4.9511    1.1956 H   0  0  0  0  0  0
   -4.2476    6.5971    1.0815 H   0  0  0  0  0  0
   -2.5032    3.1581   -1.2786 H   0  0  0  0  0  0
   -2.5481   -0.4996   -1.2906 H   0  0  0  0  0  0
   -2.5626    0.8959   -2.3266 H   0  0  0  0  0  0
   -0.3158    2.1911   -2.0724 H   0  0  0  0  0  0
   -0.3623   -0.4140    1.0334 H   0  0  0  0  0  0
   -0.3922   -1.0023   -0.6140 H   0  0  0  0  0  0
    1.8552    0.0488   -0.8042 H   0  0  0  0  0  0
    4.1369   -2.3854    0.6741 H   0  0  0  0  0  0
    3.7940   -0.8172    1.3883 H   0  0  0  0  0  0
    4.0884   -0.9513   -0.3419 H   0  0  0  0  0  0
    2.0066   -3.2724    1.7505 H   0  0  0  0  0  0
    0.4412   -2.5904    1.3629 H   0  0  0  0  0  0
    1.5617   -1.7022    2.3945 H   0  0  0  0  0  0
    1.1241   -1.1708   -2.6157 H   0  0  0  0  0  0
    0.5789   -4.5110   -4.4444 H   0  0  0  0  0  0
    0.5564   -2.8143   -4.7908 H   0  0  0  0  0  0
    4.2370   -2.7077   -5.9231 H   0  0  0  0  0  0
    3.8966   -2.6645   -4.2037 H   0  0  0  0  0  0
    2.9656   -1.6590   -5.3100 H   0  0  0  0  0  0
    1.4123   -2.7831   -7.0585 H   0  0  0  0  0  0
    1.1540   -4.5228   -7.0083 H   0  0  0  0  0  0
    2.6996   -3.8769   -7.5446 H   0  0  0  0  0  0
    3.9169   -5.2853   -5.8477 H   0  0  0  0  0  0
    2.4062   -5.9615   -5.2545 H   0  0  0  0  0  0
    3.5303   -5.1946   -4.1392 H   0  0  0  0  0  0
    1.8229    0.2921    0.8131 H   0  0  0  0  0  0
  1  2  1  0  0  0
  1 43  1  0  0  0
  1 44  1  0  0  0
  1 45  1  0  0  0
  2 39  1  0  0  0
  2 21  1  0  0  0
  2  3  1  0  0  0
  3  4  1  0  0  0
  3 46  1  0  0  0
  3 47  1  0  0  0
  4  5  1  0  0  0
  4 48  1  0  0  0
  4 49  1  0  0  0
  5  6  1  0  0  0
  5 50  1  0  0  0
  5 51  1  0  0  0
  6  7  1  0  0  0
  6 52  1  0  0  0
  6 53  1  0  0  0
  7  8  1  0  0  0
  7 54  1  0  0  0
  7 55  1  0  0  0
  8  9  1  0  0  0
  8 56  1  0  0  0
  8 57  1  0  0  0
  9 10  1  0  0  0
  9 58  1  0  0  0
  9 59  1  0  0  0
 10 11  1  0  0  0
 10 60  1  0  0  0
 10 61  1  0  0  0
 11 12  2  0  0  0
 11 13  1  0  0  0
 13 14  1  0  0  0
 13 15  1  0  0  0
 14 62  1  0  0  0
 14 63  1  0  0  0
 14 64  1  0  0  0
 15 40  1  0  0  0
 15 16  1  0  0  0
 15 17  1  0  0  0
 16 65  1  0  0  0
 16 66  1  0  0  0
 16 67  1  0  0  0
 17 18  2  0  0  0
 17 19  1  0  0  0
 19 20  1  0  0  0
 19 68  1  0  0  0
 20 41  1  0  0  0
 20 21  1  0  0  0
 20 22  1  0  0  0
 21 69  1  0  0  0
 21 70  1  0  0  0
 22 42  1  0  0  0
 22 23  1  0  0  0
 22 24  1  0  0  0
 23 71  1  0  0  0
 24 25  1  0  0  0
 24 72  1  0  0  0
 24 73  1  0  0  0
 25 26  1  0  0  0
 25 74  1  0  0  0
 25 93  1  0  0  0
 26 27  1  0  0  0
 26 28  1  0  0  0
 26 29  1  0  0  0
 27 75  1  0  0  0
 27 76  1  0  0  0
 27 77  1  0  0  0
 28 78  1  0  0  0
 28 79  1  0  0  0
 28 80  1  0  0  0
 29 38  2  0  0  0
 29 30  1  0  0  0
 30 31  2  0  0  0
 30 81  1  0  0  0
 31 32  1  0  0  0
 31 37  1  0  0  0
 32 33  1  0  0  0
 32 82  1  0  0  0
 32 83  1  0  0  0
 33 34  1  0  0  0
 33 35  1  0  0  0
 33 36  1  0  0  0
 34 84  1  0  0  0
 34 85  1  0  0  0
 34 86  1  0  0  0
 35 87  1  0  0  0
 35 88  1  0  0  0
 35 89  1  0  0  0
 36 90  1  0  0  0
 36 91  1  0  0  0
 36 92  1  0  0  0
 37 38  1  0  0  0
M  CHG  1  25   1
M  END
> <s_m_source_file>
BACE_27.smi

> <i_m_source_file_index>
1

> <i_lp_mmshare_version>
42013

> <i_f3d_flags>
0

> <s_epik_input>
W0NIM11bQ0BASF0xW0NIMl1bQ0gyXVtDSDJdW0NIMl1bQ0gyXVtDSDJdW0NIMl1bQ0gyXUMoPU8pTihbQ0gzXSlbQ0BASF0oW0NIM10pQyg9TylbTkhdW0NAQEhdKFtDSDJdMSlbQ0BIXShbT0hdKVtDSDJdW05IXUMoW0NIM10pKFtDSDNdKWMyW2NIXWMob24yKVtDSDJdQyhbQ0gzXSkoW0NIM10pW0NIM10=

> <s_epik_cmdline>
J2VwaWtfcHl0aG9uJywgJy1waCcsICc3LjAnLCAnLXRuJywgJzgnLCAnLW1hJywgJzIwMCcsICctaW1hZScsICc8aW5maWxlLm1hZT4nLCAnLW9tYWUnLCAnPG91dGZpbGUubWFlPic=

> <r_epik_Ionization_Penalty>
0.210825

> <r_epik_Ionization_Penalty_Charging>
0.210824

> <r_epik_Ionization_Penalty_Neutral>
5.13482e-07

> <r_epik_State_Penalty>
0.200908

> <r_epik_Charging_Adjusted_Penalty>
0.411732

> <i_epik_Tot_Q>
1

> <i_epik_Tot_abs_Q>
1

> <s_lp_Force_Field>
OPLS_2005

> <r_lp_Energy>
35.4529

> <b_lp_Chiralities_Consistent>
1

> <s_lp_Variant>
BACE_27.smi:1-1

$$$$
BACE_27.smi:1
                    3D
 Structure written by MMmdl.
 92 93  0  0  1  0            999 V2000
    1.6286    1.8124    3.7959 C   0  0  0  0  0  0
    0.0948    1.9466    3.8499 C   0  0  2  0  0  0
   -0.4689    1.4458    5.2007 C   0  0  0  0  0  0
   -0.1112    2.2915    6.4449 C   0  0  0  0  0  0
   -0.4437    3.8002    6.3911 C   0  0  0  0  0  0
   -1.9230    4.1987    6.5658 C   0  0  0  0  0  0
   -2.8767    3.7244    5.4532 C   0  0  0  0  0  0
   -4.1620    4.5610    5.3313 C   0  0  0  0  0  0
   -4.0053    5.9604    4.6954 C   0  0  0  0  0  0
   -3.7461    5.9644    3.1695 C   0  0  0  0  0  0
   -2.2677    5.8645    2.7327 C   0  0  0  0  0  0
   -1.3927    5.9509    3.5939 O   0  0  0  0  0  0
   -1.9820    5.6934    1.4124 N   0  0  0  0  0  0
   -3.0588    5.4542    0.4393 C   0  0  0  0  0  0
   -0.6001    5.6500    0.8635 C   0  0  1  0  0  0
    0.3362    6.7602    1.3951 C   0  0  0  0  0  0
    0.0426    4.2481    0.8451 C   0  0  0  0  0  0
    1.2175    4.1264    0.4984 O   0  0  0  0  0  0
   -0.7228    3.2027    1.2032 N   0  0  0  0  0  0
   -0.3088    1.8014    1.2688 C   0  0  1  0  0  0
   -0.5954    1.2141    2.6744 C   0  0  0  0  0  0
   -0.9523    1.0218    0.0919 C   0  0  2  0  0  0
   -2.3371    0.8546    0.3252 O   0  0  0  0  0  0
   -0.3505   -0.3790   -0.1200 C   0  0  0  0  0  0
    1.0488   -0.2961   -0.5527 N   0  0  0  0  0  0
    1.8805   -1.5145   -0.5421 C   0  0  0  0  0  0
    1.0894   -2.7512   -1.0230 C   0  0  0  0  0  0
    3.0278   -1.2665   -1.5422 C   0  0  0  0  0  0
    2.4586   -1.7784    0.8432 C   0  0  0  0  0  0
    3.8030   -2.0837    1.2069 C   0  0  0  0  0  0
    3.7574   -2.2414    2.5628 C   0  0  0  0  0  0
    4.7956   -2.5841    3.5845 C   0  0  0  0  0  0
    4.6833   -3.9993    4.2178 C   0  0  0  0  0  0
    3.6734   -3.9746    5.3823 C   0  0  0  0  0  0
    6.0616   -4.4064    4.7744 C   0  0  0  0  0  0
    4.2366   -5.0590    3.1872 C   0  0  0  0  0  0
    2.4938   -2.0488    3.0124 O   0  0  0  0  0  0
    1.6763   -1.7671    1.9149 N   0  0  0  0  0  0
   -0.1519    3.0012    3.7525 H   0  0  0  0  0  0
   -0.6867    5.8987   -0.1945 H   0  0  0  0  0  0
    0.7688    1.7548    1.1171 H   0  0  0  0  0  0
   -0.8391    1.5925   -0.8314 H   0  0  0  0  0  0
    1.9375    0.7673    3.8353 H   0  0  0  0  0  0
    2.1042    2.3318    4.6272 H   0  0  0  0  0  0
    2.0401    2.2470    2.8858 H   0  0  0  0  0  0
   -1.5500    1.3570    5.1334 H   0  0  0  0  0  0
   -0.1231    0.4247    5.3667 H   0  0  0  0  0  0
   -0.5919    1.8542    7.3205 H   0  0  0  0  0  0
    0.9582    2.1896    6.6298 H   0  0  0  0  0  0
    0.1037    4.2738    7.2068 H   0  0  0  0  0  0
   -0.0366    4.2615    5.4931 H   0  0  0  0  0  0
   -2.2909    3.8493    7.5310 H   0  0  0  0  0  0
   -1.9522    5.2866    6.6196 H   0  0  0  0  0  0
   -2.3679    3.6795    4.4927 H   0  0  0  0  0  0
   -3.1750    2.7012    5.6775 H   0  0  0  0  0  0
   -4.8950    3.9971    4.7531 H   0  0  0  0  0  0
   -4.5991    4.6705    6.3245 H   0  0  0  0  0  0
   -4.9432    6.4914    4.8607 H   0  0  0  0  0  0
   -3.2603    6.5512    5.2283 H   0  0  0  0  0  0
   -4.3365    5.1672    2.7189 H   0  0  0  0  0  0
   -4.1293    6.9001    2.7608 H   0  0  0  0  0  0
   -3.7688    6.2820    0.4277 H   0  0  0  0  0  0
   -3.5969    4.5357    0.6773 H   0  0  0  0  0  0
   -2.6958    5.3365   -0.5818 H   0  0  0  0  0  0
    1.2106    6.8696    0.7527 H   0  0  0  0  0  0
    0.7107    6.5479    2.3963 H   0  0  0  0  0  0
   -0.1678    7.7268    1.4161 H   0  0  0  0  0  0
   -1.6789    3.3964    1.4638 H   0  0  0  0  0  0
   -0.3100    0.1632    2.7055 H   0  0  0  0  0  0
   -1.6729    1.2336    2.8409 H   0  0  0  0  0  0
   -2.4468    0.3481    1.1154 H   0  0  0  0  0  0
   -0.4535   -0.9692    0.7880 H   0  0  0  0  0  0
   -0.9301   -0.8997   -0.8831 H   0  0  0  0  0  0
    1.1506    0.2193   -1.4210 H   0  0  0  0  0  0
    1.7374   -3.6254   -1.0949 H   0  0  0  0  0  0
    0.6527   -2.5875   -2.0089 H   0  0  0  0  0  0
    0.2805   -3.0135   -0.3404 H   0  0  0  0  0  0
    3.6821   -2.1345   -1.6310 H   0  0  0  0  0  0
    3.6431   -0.4163   -1.2435 H   0  0  0  0  0  0
    2.6429   -1.0543   -2.5406 H   0  0  0  0  0  0
    4.6717   -2.1790    0.5731 H   0  0  0  0  0  0
    5.7663   -2.4944    3.0952 H   0  0  0  0  0  0
    4.8032   -1.8222    4.3651 H   0  0  0  0  0  0
    3.6016   -4.9497    5.8656 H   0  0  0  0  0  0
    2.6726   -3.7087    5.0412 H   0  0  0  0  0  0
    3.9629   -3.2526    6.1468 H   0  0  0  0  0  0
    6.4217   -3.6840    5.5077 H   0  0  0  0  0  0
    6.8086   -4.4713    3.9825 H   0  0  0  0  0  0
    6.0225   -5.3795    5.2654 H   0  0  0  0  0  0
    4.2438   -6.0596    3.6212 H   0  0  0  0  0  0
    4.9001   -5.0733    2.3217 H   0  0  0  0  0  0
    3.2238   -4.8770    2.8258 H   0  0  0  0  0  0
  1  2  1  0  0  0
  1 43  1  0  0  0
  1 44  1  0  0  0
  1 45  1  0  0  0
  2 39  1  0  0  0
  2 21  1  0  0  0
  2  3  1  0  0  0
  3  4  1  0  0  0
  3 46  1  0  0  0
  3 47  1  0  0  0
  4  5  1  0  0  0
  4 48  1  0  0  0
  4 49  1  0  0  0
  5  6  1  0  0  0
  5 50  1  0  0  0
  5 51  1  0  0  0
  6  7  1  0  0  0
  6 52  1  0  0  0
  6 53  1  0  0  0
  7  8  1  0  0  0
  7 54  1  0  0  0
  7 55  1  0  0  0
  8  9  1  0  0  0
  8 56  1  0  0  0
  8 57  1  0  0  0
  9 10  1  0  0  0
  9 58  1  0  0  0
  9 59  1  0  0  0
 10 11  1  0  0  0
 10 60  1  0  0  0
 10 61  1  0  0  0
 11 12  2  0  0  0
 11 13  1  0  0  0
 13 14  1  0  0  0
 13 15  1  0  0  0
 14 62  1  0  0  0
 14 63  1  0  0  0
 14 64  1  0  0  0
 15 40  1  0  0  0
 15 16  1  0  0  0
 15 17  1  0  0  0
 16 65  1  0  0  0
 16 66  1  0  0  0
 16 67  1  0  0  0
 17 18  2  0  0  0
 17 19  1  0  0  0
 19 20  1  0  0  0
 19 68  1  0  0  0
 20 41  1  0  0  0
 20 21  1  0  0  0
 20 22  1  0  0  0
 21 69  1  0  0  0
 21 70  1  0  0  0
 22 42  1  0  0  0
 22 23  1  0  0  0
 22 24  1  0  0  0
 23 71  1  0  0  0
 24 25  1  0  0  0
 24 72  1  0  0  0
 24 73  1  0  0  0
 25 26  1  0  0  0
 25 74  1  0  0  0
 26 27  1  0  0  0
 26 28  1  0  0  0
 26 29  1  0  0  0
 27 75  1  0  0  0
 27 76  1  0  0  0
 27 77  1  0  0  0
 28 78  1  0  0  0
 28 79  1  0  0  0
 28 80  1  0  0  0
 29 38  2  0  0  0
 29 30  1  0  0  0
 30 31  2  0  0  0
 30 81  1  0  0  0
 31 32  1  0  0  0
 31 37  1  0  0  0
 32 33  1  0  0  0
 32 82  1  0  0  0
 32 83  1  0  0  0
 33 34  1  0  0  0
 33 35  1  0  0  0
 33 36  1  0  0  0
 34 84  1  0  0  0
 34 85  1  0  0  0
 34 86  1  0  0  0
 35 87  1  0  0  0
 35 88  1  0  0  0
 35 89  1  0  0  0
 36 90  1  0  0  0
 36 91  1  0  0  0
 36 92  1  0  0  0
 37 38  1  0  0  0
M  END
> <s_m_source_file>
BACE_27.smi

> <i_m_source_file_index>
1

> <i_lp_mmshare_version>
42013

> <i_f3d_flags>
0

> <s_epik_input>
W0NIM11bQ0BASF0xW0NIMl1bQ0gyXVtDSDJdW0NIMl1bQ0gyXVtDSDJdW0NIMl1bQ0gyXUMoPU8pTihbQ0gzXSlbQ0BASF0oW0NIM10pQyg9TylbTkhdW0NAQEhdKFtDSDJdMSlbQ0BIXShbT0hdKVtDSDJdW05IXUMoW0NIM10pKFtDSDNdKWMyW2NIXWMob24yKVtDSDJdQyhbQ0gzXSkoW0NIM10pW0NIM10=

> <s_epik_cmdline>
J2VwaWtfcHl0aG9uJywgJy1waCcsICc3LjAnLCAnLXRuJywgJzgnLCAnLW1hJywgJzIwMCcsICctaW1hZScsICc8aW5maWxlLm1hZT4nLCAnLW9tYWUnLCAnPG91dGZpbGUubWFlPic=

> <r_epik_Ionization_Penalty>
0.714507

> <r_epik_Ionization_Penalty_Charging>
0

> <r_epik_Ionization_Penalty_Neutral>
0.714507

> <r_epik_State_Penalty>
0.738379

> <r_epik_Charging_Adjusted_Penalty>
0.738379

> <i_epik_Tot_Q>
0

> <i_epik_Tot_abs_Q>
0

> <s_lp_Force_Field>
OPLS_2005

> <r_lp_Energy>
38.6357

> <b_lp_Chiralities_Consistent>
1

> <s_lp_Variant>
BACE_27.smi:1-2

$$$$
