BACE_20.smi:1
                    3D
 Structure written by MMmdl.
 78 79  0  0  1  0            999 V2000
   -5.0418    2.0735    3.5444 C   0  0  0  0  0  0
   -4.2266    0.9876    2.8340 C   0  0  0  0  0  0
   -5.0858   -0.2230    2.4308 C   0  0  0  0  0  0
   -4.2854   -1.3522    1.7636 C   0  0  0  0  0  0
   -3.6735   -0.9017    0.5212 N   0  0  0  0  0  0
   -2.8479   -1.6397   -0.2336 C   0  0  0  0  0  0
   -2.5364   -2.7990    0.0413 O   0  0  0  0  0  0
   -2.2745   -0.9577   -1.4840 C   0  0  2  0  0  0
   -2.7200   -1.7124   -2.7483 C   0  0  0  0  0  0
   -0.7312   -0.8432   -1.4248 C   0  0  0  0  0  0
   -0.1589   -0.0709   -0.2087 C   0  0  2  0  0  0
   -0.7037    1.2356   -0.2441 O   0  0  0  0  0  0
    1.3880    0.0471   -0.2172 C   0  0  2  0  0  0
    2.1054   -1.3115   -0.4177 C   0  0  0  0  0  0
    3.5962   -1.2802   -0.1125 C   0  0  0  0  0  0
    4.4729   -0.5584   -0.9495 C   0  0  0  0  0  0
    5.8497   -0.5083   -0.6576 C   0  0  0  0  0  0
    6.3560   -1.1818    0.4707 C   0  0  0  0  0  0
    5.4851   -1.9073    1.3060 C   0  0  0  0  0  0
    4.1080   -1.9572    1.0152 C   0  0  0  0  0  0
    1.8475    0.6422    1.0403 N   0  0  0  0  0  0
    2.2536    1.9106    1.2129 C   0  0  0  0  0  0
    2.1789    2.7794    0.3435 O   0  0  0  0  0  0
    2.7807    2.2309    2.5808 C   0  0  0  0  0  0
    2.5988    3.5157    3.1362 C   0  0  0  0  0  0
    3.1337    3.7927    4.4107 C   0  0  0  0  0  0
    2.9410    5.0707    4.9561 N   0  0  0  0  0  0
    3.4334    5.4206    6.2830 C   0  0  0  0  0  0
    2.5187    4.9018    7.4041 C   0  0  0  0  0  0
    3.0320    5.2866    8.7981 C   0  0  0  0  0  0
    2.1301    4.7657    9.9221 C   0  0  0  0  0  0
    3.8269    2.8730    5.1209 N   0  0  0  0  0  0
    4.0144    1.6408    4.5892 C   0  0  0  0  0  0
    3.5119    1.2779    3.3249 C   0  0  0  0  0  0
    4.7283    0.7057    5.3099 O   0  0  0  0  0  0
    5.2384    1.0827    6.5845 C   0  0  0  0  0  0
   -2.6934    0.0480   -1.5472 H   0  0  0  0  0  0
   -0.4736   -0.5524    0.7180 H   0  0  0  0  0  0
    1.6894    0.6868   -1.0489 H   0  0  0  0  0  0
   -4.4102    2.9200    3.8144 H   0  0  0  0  0  0
   -5.4950    1.6907    4.4592 H   0  0  0  0  0  0
   -5.8419    2.4462    2.9045 H   0  0  0  0  0  0
   -3.7532    1.4212    1.9526 H   0  0  0  0  0  0
   -3.4177    0.6601    3.4878 H   0  0  0  0  0  0
   -5.5805   -0.6216    3.3173 H   0  0  0  0  0  0
   -5.8826    0.1013    1.7600 H   0  0  0  0  0  0
   -3.5127   -1.7140    2.4438 H   0  0  0  0  0  0
   -4.9447   -2.1950    1.5513 H   0  0  0  0  0  0
   -3.8743    0.0430    0.2261 H   0  0  0  0  0  0
   -3.8061   -1.8030   -2.7951 H   0  0  0  0  0  0
   -2.3005   -2.7186   -2.7851 H   0  0  0  0  0  0
   -2.3988   -1.1884   -3.6489 H   0  0  0  0  0  0
   -0.3211   -1.8532   -1.4395 H   0  0  0  0  0  0
   -0.3778   -0.3688   -2.3414 H   0  0  0  0  0  0
   -0.3776    1.6771   -1.0135 H   0  0  0  0  0  0
    1.6369   -2.0675    0.2144 H   0  0  0  0  0  0
    1.9820   -1.6554   -1.4450 H   0  0  0  0  0  0
    4.0897   -0.0348   -1.8131 H   0  0  0  0  0  0
    6.5172    0.0485   -1.2984 H   0  0  0  0  0  0
    7.4116   -1.1420    0.6953 H   0  0  0  0  0  0
    5.8729   -2.4240    2.1714 H   0  0  0  0  0  0
    3.4467   -2.5103    1.6656 H   0  0  0  0  0  0
    1.9222    0.0199    1.8317 H   0  0  0  0  0  0
    2.0549    4.2771    2.5953 H   0  0  0  0  0  0
    2.4242    5.7625    4.4326 H   0  0  0  0  0  0
    4.4504    5.0490    6.4144 H   0  0  0  0  0  0
    3.4973    6.5073    6.3389 H   0  0  0  0  0  0
    1.5127    5.2995    7.2648 H   0  0  0  0  0  0
    2.4324    3.8164    7.3416 H   0  0  0  0  0  0
    4.0407    4.8956    8.9370 H   0  0  0  0  0  0
    3.1085    6.3718    8.8727 H   0  0  0  0  0  0
    2.5175    5.0581   10.8983 H   0  0  0  0  0  0
    2.0655    3.6775    9.9023 H   0  0  0  0  0  0
    1.1192    5.1639    9.8323 H   0  0  0  0  0  0
    3.6990    0.2866    2.9387 H   0  0  0  0  0  0
    5.7770    0.2418    7.0211 H   0  0  0  0  0  0
    4.4354    1.3540    7.2714 H   0  0  0  0  0  0
    5.9370    1.9167    6.5036 H   0  0  0  0  0  0
  1  2  1  0  0  0
  1 40  1  0  0  0
  1 41  1  0  0  0
  1 42  1  0  0  0
  2  3  1  0  0  0
  2 43  1  0  0  0
  2 44  1  0  0  0
  3  4  1  0  0  0
  3 45  1  0  0  0
  3 46  1  0  0  0
  4  5  1  0  0  0
  4 47  1  0  0  0
  4 48  1  0  0  0
  5  6  1  0  0  0
  5 49  1  0  0  0
  6  7  2  0  0  0
  6  8  1  0  0  0
  8 37  1  0  0  0
  8  9  1  0  0  0
  8 10  1  0  0  0
  9 50  1  0  0  0
  9 51  1  0  0  0
  9 52  1  0  0  0
 10 11  1  0  0  0
 10 53  1  0  0  0
 10 54  1  0  0  0
 11 38  1  0  0  0
 11 12  1  0  0  0
 11 13  1  0  0  0
 12 55  1  0  0  0
 13 39  1  0  0  0
 13 14  1  0  0  0
 13 21  1  0  0  0
 14 15  1  0  0  0
 14 56  1  0  0  0
 14 57  1  0  0  0
 15 20  1  0  0  0
 15 16  2  0  0  0
 16 17  1  0  0  0
 16 58  1  0  0  0
 17 18  2  0  0  0
 17 59  1  0  0  0
 18 19  1  0  0  0
 18 60  1  0  0  0
 19 20  2  0  0  0
 19 61  1  0  0  0
 20 62  1  0  0  0
 21 22  1  0  0  0
 21 63  1  0  0  0
 22 23  2  0  0  0
 22 24  1  0  0  0
 24 34  1  0  0  0
 24 25  2  0  0  0
 25 26  1  0  0  0
 25 64  1  0  0  0
 26 27  1  0  0  0
 26 32  2  0  0  0
 27 28  1  0  0  0
 27 65  1  0  0  0
 28 29  1  0  0  0
 28 66  1  0  0  0
 28 67  1  0  0  0
 29 30  1  0  0  0
 29 68  1  0  0  0
 29 69  1  0  0  0
 30 31  1  0  0  0
 30 70  1  0  0  0
 30 71  1  0  0  0
 31 72  1  0  0  0
 31 73  1  0  0  0
 31 74  1  0  0  0
 32 33  1  0  0  0
 33 34  2  0  0  0
 33 35  1  0  0  0
 34 75  1  0  0  0
 35 36  1  0  0  0
 36 76  1  0  0  0
 36 77  1  0  0  0
 36 78  1  0  0  0
M  END
> <s_m_source_file>
BACE_20.smi

> <i_m_source_file_index>
1

> <i_lp_mmshare_version>
42013

> <i_f3d_flags>
0

> <s_epik_input>
W0NIM11bQ0gyXVtDSDJdW0NIMl1bTkhdQyg9TylbQ0BIXShbQ0gzXSlbQ0gyXVtDQEhdKFtPSF0pW0NASF0oW0NIMl1jMVtjSF1bY0hdW2NIXVtjSF1bY0hdMSlbTkhdQyg9TyljMltjSF1jKG5jKFtjSF0yKU9bQ0gzXSlbTkhdW0NIMl1bQ0gyXVtDSDJdW0NIM10=

> <s_epik_cmdline>
J2VwaWtfcHl0aG9uJywgJy1waCcsICc3LjAnLCAnLXRuJywgJzgnLCAnLW1hJywgJzIwMCcsICctaW1hZScsICc8aW5maWxlLm1hZT4nLCAnLW9tYWUnLCAnPG91dGZpbGUubWFlPic=

> <r_lp_tautomer_probability>
1

> <r_epik_Ionization_Penalty>
3.11081e-05

> <r_epik_Ionization_Penalty_Charging>
0

> <r_epik_Ionization_Penalty_Neutral>
3.11081e-05

> <r_epik_State_Penalty>
-0

> <r_epik_Charging_Adjusted_Penalty>
0

> <i_epik_Tot_Q>
0

> <i_epik_Tot_abs_Q>
0

> <s_lp_Force_Field>
OPLS_2005

> <r_lp_Energy>
15.1762

> <b_lp_Chiralities_Consistent>
1

> <s_lp_Variant>
BACE_20.smi:1-1

$$$$
