BACE_47.smi:1
                    3D
 Structure written by MMmdl.
 91 94  0  0  1  0            999 V2000
    0.2548    3.3769    7.5176 C   0  0  0  0  0  0
   -0.4242    2.9495    6.3499 O   0  0  0  0  0  0
   -0.0135    1.6617    5.9224 C   0  0  0  0  0  0
   -0.7420    1.2379    4.6629 C   0  0  0  0  0  0
   -0.4538    1.8589    3.4312 C   0  0  0  0  0  0
   -1.1439    1.4208    2.2839 C   0  0  0  0  0  0
   -2.1128    0.4057    2.4264 C   0  0  0  0  0  0
   -2.3346   -0.1588    3.7031 C   0  0  0  0  0  0
   -3.2764   -1.1701    3.9396 N   0  0  0  0  0  0
   -3.7330   -2.0673    2.8830 C   0  0  0  0  0  0
   -5.2662   -2.0706    2.7490 C   0  0  0  0  0  0
   -5.8744   -0.8032    2.1165 C   0  0  0  0  0  0
   -5.8360   -0.7762    0.5797 C   0  0  0  0  0  0
   -4.5076   -0.5861    0.1299 O   0  0  0  0  0  0
   -4.3894   -0.5355   -1.2820 C   0  0  0  0  0  0
   -2.9236   -0.2521   -1.6495 C   0  0  0  0  0  0
   -1.9270   -1.3465   -1.1949 C   0  0  1  0  0  0
   -2.1070   -2.6279   -2.0304 C   0  0  0  0  0  0
   -0.4488   -0.8848   -1.2493 C   0  0  0  0  0  0
    0.0551   -0.0772   -0.0246 C   0  0  2  0  0  0
   -0.4799    1.2888   -0.0680 N   0  0  0  0  0  0
   -0.8937    2.0628    0.9525 C   0  0  0  0  0  0
   -1.0741    3.2703    0.8125 O   0  0  0  0  0  0
    1.6065   -0.0369    0.0170 C   0  0  2  0  0  0
    2.0207    0.2846    1.3302 O   0  0  0  0  0  0
    2.2305    0.9571   -0.9815 C   0  0  0  0  0  0
    3.5605    0.5295   -1.4086 N   0  0  0  0  0  0
    4.0883    1.2516   -2.5657 C   0  0  0  0  0  0
    5.5071    1.7655   -2.4733 C   0  0  0  0  0  0
    4.3498    2.7374   -2.4460 C   0  0  0  0  0  0
    3.5963    0.6580   -3.8542 C   0  0  0  0  0  0
    2.3939    1.1100   -4.4379 C   0  0  0  0  0  0
    1.8712    0.5209   -5.6132 C   0  0  0  0  0  0
    2.6054   -0.5287   -6.2183 C   0  0  0  0  0  0
    3.8137   -0.9775   -5.6532 C   0  0  0  0  0  0
    4.3036   -0.3921   -4.4726 C   0  0  0  0  0  0
    0.5287    1.0233   -6.1774 C   0  0  0  0  0  0
    0.0983    0.2781   -7.4610 C   0  0  0  0  0  0
    0.6383    2.5231   -6.5214 C   0  0  0  0  0  0
   -0.5814    0.8206   -5.1232 C   0  0  0  0  0  0
   -1.6592    0.2541    4.7977 N   0  0  0  0  0  0
   -2.1460   -1.6116   -0.1609 H   0  0  0  0  0  0
   -0.2801   -0.6166    0.8601 H   0  0  0  0  0  0
    1.9824   -1.0416   -0.1823 H   0  0  0  0  0  0
   -0.0986    4.3674    7.8032 H   0  0  0  0  0  0
    1.3306    3.4391    7.3492 H   0  0  0  0  0  0
    0.0699    2.7000    8.3525 H   0  0  0  0  0  0
    1.0588    1.6615    5.7196 H   0  0  0  0  0  0
   -0.1896    0.9332    6.7163 H   0  0  0  0  0  0
    0.2830    2.6471    3.3706 H   0  0  0  0  0  0
   -2.6726    0.0917    1.5623 H   0  0  0  0  0  0
   -3.3508   -1.5116    4.8871 H   0  0  0  0  0  0
   -3.2540   -1.8831    1.9247 H   0  0  0  0  0  0
   -3.4129   -3.0681    3.1730 H   0  0  0  0  0  0
   -5.5748   -2.9410    2.1692 H   0  0  0  0  0  0
   -5.6992   -2.2140    3.7401 H   0  0  0  0  0  0
   -6.9218   -0.7546    2.4161 H   0  0  0  0  0  0
   -5.4096    0.0950    2.5249 H   0  0  0  0  0  0
   -6.2497   -1.6992    0.1707 H   0  0  0  0  0  0
   -6.4577    0.0443    0.2186 H   0  0  0  0  0  0
   -4.7406   -1.4651   -1.7296 H   0  0  0  0  0  0
   -5.0190    0.2651   -1.6730 H   0  0  0  0  0  0
   -2.8400   -0.1116   -2.7279 H   0  0  0  0  0  0
   -2.6670    0.7088   -1.2110 H   0  0  0  0  0  0
   -1.9048   -2.4442   -3.0862 H   0  0  0  0  0  0
   -3.1170   -3.0278   -1.9484 H   0  0  0  0  0  0
   -1.4306   -3.4151   -1.6961 H   0  0  0  0  0  0
    0.1714   -1.7792   -1.3168 H   0  0  0  0  0  0
   -0.2614   -0.3417   -2.1764 H   0  0  0  0  0  0
   -0.3919    1.7518   -0.9608 H   0  0  0  0  0  0
    1.6866    1.1412    1.5487 H   0  0  0  0  0  0
    1.5843    1.0143   -1.8555 H   0  0  0  0  0  0
    2.2595    1.9635   -0.5624 H   0  0  0  0  0  0
    4.2168    0.5566   -0.6347 H   0  0  0  0  0  0
    6.0471    1.6240   -1.5391 H   0  0  0  0  0  0
    6.1194    1.7496   -3.3729 H   0  0  0  0  0  0
    4.1946    3.3537   -3.3295 H   0  0  0  0  0  0
    4.1498    3.2271   -1.4950 H   0  0  0  0  0  0
    1.8558    1.9116   -3.9549 H   0  0  0  0  0  0
    2.2627   -1.0163   -7.1174 H   0  0  0  0  0  0
    4.3605   -1.7825   -6.1213 H   0  0  0  0  0  0
    5.2222   -0.7565   -4.0365 H   0  0  0  0  0  0
   -0.8537    0.6554   -7.8363 H   0  0  0  0  0  0
   -0.0320   -0.7903   -7.2830 H   0  0  0  0  0  0
    0.8275    0.4022   -8.2628 H   0  0  0  0  0  0
    1.4295    2.7028   -7.2503 H   0  0  0  0  0  0
    0.8560    3.1320   -5.6440 H   0  0  0  0  0  0
   -0.2914    2.9009   -6.9483 H   0  0  0  0  0  0
   -1.5507    1.1504   -5.4987 H   0  0  0  0  0  0
   -0.3881    1.3805   -4.2080 H   0  0  0  0  0  0
   -0.6781   -0.2307   -4.8485 H   0  0  0  0  0  0
  1  2  1  0  0  0
  1 45  1  0  0  0
  1 46  1  0  0  0
  1 47  1  0  0  0
  2  3  1  0  0  0
  3  4  1  0  0  0
  3 48  1  0  0  0
  3 49  1  0  0  0
  4 41  1  0  0  0
  4  5  2  0  0  0
  5  6  1  0  0  0
  5 50  1  0  0  0
  6 22  1  0  0  0
  6  7  2  0  0  0
  7  8  1  0  0  0
  7 51  1  0  0  0
  8  9  1  0  0  0
  8 41  2  0  0  0
  9 10  1  0  0  0
  9 52  1  0  0  0
 10 11  1  0  0  0
 10 53  1  0  0  0
 10 54  1  0  0  0
 11 12  1  0  0  0
 11 55  1  0  0  0
 11 56  1  0  0  0
 12 13  1  0  0  0
 12 57  1  0  0  0
 12 58  1  0  0  0
 13 14  1  0  0  0
 13 59  1  0  0  0
 13 60  1  0  0  0
 14 15  1  0  0  0
 15 16  1  0  0  0
 15 61  1  0  0  0
 15 62  1  0  0  0
 16 17  1  0  0  0
 16 63  1  0  0  0
 16 64  1  0  0  0
 17 42  1  0  0  0
 17 18  1  0  0  0
 17 19  1  0  0  0
 18 65  1  0  0  0
 18 66  1  0  0  0
 18 67  1  0  0  0
 19 20  1  0  0  0
 19 68  1  0  0  0
 19 69  1  0  0  0
 20 43  1  0  0  0
 20 21  1  0  0  0
 20 24  1  0  0  0
 21 22  1  0  0  0
 21 70  1  0  0  0
 22 23  2  0  0  0
 24 44  1  0  0  0
 24 25  1  0  0  0
 24 26  1  0  0  0
 25 71  1  0  0  0
 26 27  1  0  0  0
 26 72  1  0  0  0
 26 73  1  0  0  0
 27 28  1  0  0  0
 27 74  1  0  0  0
 28 30  1  0  0  0
 28 29  1  0  0  0
 28 31  1  0  0  0
 29 30  1  0  0  0
 29 75  1  0  0  0
 29 76  1  0  0  0
 30 77  1  0  0  0
 30 78  1  0  0  0
 31 36  1  0  0  0
 31 32  2  0  0  0
 32 33  1  0  0  0
 32 79  1  0  0  0
 33 34  2  0  0  0
 33 37  1  0  0  0
 34 35  1  0  0  0
 34 80  1  0  0  0
 35 36  2  0  0  0
 35 81  1  0  0  0
 36 82  1  0  0  0
 37 38  1  0  0  0
 37 39  1  0  0  0
 37 40  1  0  0  0
 38 83  1  0  0  0
 38 84  1  0  0  0
 38 85  1  0  0  0
 39 86  1  0  0  0
 39 87  1  0  0  0
 39 88  1  0  0  0
 40 89  1  0  0  0
 40 90  1  0  0  0
 40 91  1  0  0  0
M  END
> <s_m_source_file>
BACE_47.smi

> <i_m_source_file_index>
1

> <i_lp_mmshare_version>
42013

> <i_f3d_flags>
0

> <s_epik_input>
W0NIM11PW0NIMl1jKFtjSF1jMTIpbmMoW2NIXTEpW05IXVtDSDJdW0NIMl1bQ0gyXVtDSDJdT1tDSDJdW0NIMl1bQ0BASF0oW0NIM10pW0NIMl1bQ0BIXShbTkhdQzI9TylbQ0BIXShbT0hdKVtDSDJdW05IXUMzKFtDSDJdW0NIMl0zKWM0W2NIXWMoQyhbQ0gzXSkoW0NIM10pW0NIM10pW2NIXVtjSF1bY0hdNA==

> <s_epik_cmdline>
J2VwaWtfcHl0aG9uJywgJy1waCcsICc3LjAnLCAnLXRuJywgJzgnLCAnLW1hJywgJzIwMCcsICctaW1hZScsICc8aW5maWxlLm1hZT4nLCAnLW9tYWUnLCAnPG91dGZpbGUubWFlPic=

> <r_lp_tautomer_probability>
1

> <r_epik_Ionization_Penalty>
0.348279

> <r_epik_Ionization_Penalty_Charging>
0

> <r_epik_Ionization_Penalty_Neutral>
0.348279

> <r_epik_State_Penalty>
0.343593

> <r_epik_Charging_Adjusted_Penalty>
0.343593

> <i_epik_Tot_Q>
0

> <i_epik_Tot_abs_Q>
0

> <s_lp_Force_Field>
OPLS_2005

> <r_lp_Energy>
54.4829

> <b_lp_Chiralities_Consistent>
1

> <s_lp_Variant>
BACE_47.smi:1-1

$$$$
BACE_47.smi:1
                    3D
 Structure written by MMmdl.
 92 95  0  0  1  0            999 V2000
    1.6991    1.1261    5.1147 C   0  0  0  0  0  0
    1.2400    2.4329    4.8051 O   0  0  0  0  0  0
   -0.1659    2.5919    4.9397 C   0  0  0  0  0  0
   -0.9513    1.8522    3.8713 C   0  0  0  0  0  0
   -0.8020    2.1952    2.5129 C   0  0  0  0  0  0
   -1.5302    1.4637    1.5546 C   0  0  0  0  0  0
   -2.4038    0.4498    2.0013 C   0  0  0  0  0  0
   -2.4825    0.1721    3.3848 C   0  0  0  0  0  0
   -3.3138   -0.8244    3.9131 N   0  0  0  0  0  0
   -3.6067   -2.0346    3.1519 C   0  0  0  0  0  0
   -5.1059   -2.3801    3.1744 C   0  0  0  0  0  0
   -6.0065   -1.4319    2.3582 C   0  0  0  0  0  0
   -6.0528   -1.7326    0.8513 C   0  0  0  0  0  0
   -4.8129   -1.4120    0.2473 O   0  0  0  0  0  0
   -4.8111   -1.5991   -1.1585 C   0  0  0  0  0  0
   -3.4275   -1.2202   -1.7109 C   0  0  0  0  0  0
   -2.2755   -2.1299   -1.2198 C   0  0  1  0  0  0
   -2.3714   -3.5278   -1.8601 C   0  0  0  0  0  0
   -0.8680   -1.5300   -1.4713 C   0  0  0  0  0  0
   -0.4030   -0.4718   -0.4388 C   0  0  2  0  0  0
   -1.0216    0.8225   -0.7504 N   0  0  0  0  0  0
   -1.4129    1.7925    0.0970 C   0  0  0  0  0  0
   -1.6733    2.9263   -0.2991 O   0  0  0  0  0  0
    1.1468   -0.3435   -0.4031 C   0  0  2  0  0  0
    1.5392    0.0736    0.8904 O   0  0  0  0  0  0
    1.7485    0.6146   -1.4493 C   0  0  0  0  0  0
    3.2212    0.5003   -1.5082 N   0  3  0  0  0  0
    3.8702    1.3659   -2.5174 C   0  0  0  0  0  0
    3.9011    0.7690   -3.9050 C   0  0  0  0  0  0
    5.1535    0.7761   -3.0525 C   0  0  0  0  0  0
    3.7223    2.8375   -2.2659 C   0  0  0  0  0  0
    2.6414    3.5516   -2.8244 C   0  0  0  0  0  0
    2.4542    4.9309   -2.5708 C   0  0  0  0  0  0
    3.4010    5.5947   -1.7523 C   0  0  0  0  0  0
    4.4905    4.8940   -1.2015 C   0  0  0  0  0  0
    4.6487    3.5198   -1.4534 C   0  0  0  0  0  0
    1.2331    5.6508   -3.1739 C   0  0  0  0  0  0
   -0.0611    4.9963   -2.6457 C   0  0  0  0  0  0
    1.2701    5.5405   -4.7126 C   0  0  0  0  0  0
    1.1790    7.1523   -2.8125 C   0  0  0  0  0  0
   -1.7689    0.8644    4.2988 N   0  0  0  0  0  0
   -2.3822   -2.2709   -0.1441 H   0  0  0  0  0  0
   -0.7175   -0.8461    0.5339 H   0  0  0  0  0  0
    1.5870   -1.3326   -0.5352 H   0  0  0  0  0  0
    2.7857    1.0943    5.0360 H   0  0  0  0  0  0
    1.2948    0.3831    4.4261 H   0  0  0  0  0  0
    1.4283    0.8436    6.1328 H   0  0  0  0  0  0
   -0.4860    2.2916    5.9393 H   0  0  0  0  0  0
   -0.3951    3.6542    4.8513 H   0  0  0  0  0  0
   -0.1337    2.9909    2.2164 H   0  0  0  0  0  0
   -3.0002   -0.0880    1.2828 H   0  0  0  0  0  0
   -3.3000   -0.9272    4.9178 H   0  0  0  0  0  0
   -3.2304   -2.0022    2.1323 H   0  0  0  0  0  0
   -3.0594   -2.8446    3.6344 H   0  0  0  0  0  0
   -5.2458   -3.4013    2.8182 H   0  0  0  0  0  0
   -5.4443   -2.3849    4.2115 H   0  0  0  0  0  0
   -7.0232   -1.5293    2.7404 H   0  0  0  0  0  0
   -5.7267   -0.3916    2.5285 H   0  0  0  0  0  0
   -6.2988   -2.7815    0.6782 H   0  0  0  0  0  0
   -6.8425   -1.1359    0.3921 H   0  0  0  0  0  0
   -5.0725   -2.6266   -1.4109 H   0  0  0  0  0  0
   -5.5682   -0.9569   -1.6104 H   0  0  0  0  0  0
   -3.4569   -1.2295   -2.8009 H   0  0  0  0  0  0
   -3.2493   -0.1849   -1.4324 H   0  0  0  0  0  0
   -2.2870   -3.4728   -2.9459 H   0  0  0  0  0  0
   -3.3144   -4.0193   -1.6239 H   0  0  0  0  0  0
   -1.5787   -4.1839   -1.4996 H   0  0  0  0  0  0
   -0.1570   -2.3558   -1.4354 H   0  0  0  0  0  0
   -0.7961   -1.1385   -2.4872 H   0  0  0  0  0  0
   -1.0295    1.0694   -1.7294 H   0  0  0  0  0  0
    1.1581   -0.5132    1.5268 H   0  0  0  0  0  0
    1.3449    0.3861   -2.4363 H   0  0  0  0  0  0
    1.4707    1.6429   -1.2164 H   0  0  0  0  0  0
    3.5917    0.7358   -0.5984 H   0  0  0  0  0  0
    3.4236   -0.1956   -4.0681 H   0  0  0  0  0  0
    3.8762    1.4508   -4.7529 H   0  0  0  0  0  0
    5.9463    1.4604   -3.3490 H   0  0  0  0  0  0
    5.4884   -0.1845   -2.6650 H   0  0  0  0  0  0
    1.9345    3.0180   -3.4422 H   0  0  0  0  0  0
    3.3156    6.6457   -1.5245 H   0  0  0  0  0  0
    5.2036    5.4126   -0.5776 H   0  0  0  0  0  0
    5.4832    2.9895   -1.0181 H   0  0  0  0  0  0
   -0.9474    5.4941   -3.0408 H   0  0  0  0  0  0
   -0.1140    5.0511   -1.5576 H   0  0  0  0  0  0
   -0.1358    3.9447   -2.9233 H   0  0  0  0  0  0
    1.2258    4.5061   -5.0536 H   0  0  0  0  0  0
    2.1822    5.9808   -5.1172 H   0  0  0  0  0  0
    0.4268    6.0614   -5.1677 H   0  0  0  0  0  0
    0.3068    7.6337   -3.2565 H   0  0  0  0  0  0
    2.0567    7.6878   -3.1767 H   0  0  0  0  0  0
    1.1107    7.3062   -1.7347 H   0  0  0  0  0  0
    3.4581   -0.4597   -1.7124 H   0  0  0  0  0  0
  1  2  1  0  0  0
  1 45  1  0  0  0
  1 46  1  0  0  0
  1 47  1  0  0  0
  2  3  1  0  0  0
  3  4  1  0  0  0
  3 48  1  0  0  0
  3 49  1  0  0  0
  4 41  1  0  0  0
  4  5  2  0  0  0
  5  6  1  0  0  0
  5 50  1  0  0  0
  6 22  1  0  0  0
  6  7  2  0  0  0
  7  8  1  0  0  0
  7 51  1  0  0  0
  8  9  1  0  0  0
  8 41  2  0  0  0
  9 10  1  0  0  0
  9 52  1  0  0  0
 10 11  1  0  0  0
 10 53  1  0  0  0
 10 54  1  0  0  0
 11 12  1  0  0  0
 11 55  1  0  0  0
 11 56  1  0  0  0
 12 13  1  0  0  0
 12 57  1  0  0  0
 12 58  1  0  0  0
 13 14  1  0  0  0
 13 59  1  0  0  0
 13 60  1  0  0  0
 14 15  1  0  0  0
 15 16  1  0  0  0
 15 61  1  0  0  0
 15 62  1  0  0  0
 16 17  1  0  0  0
 16 63  1  0  0  0
 16 64  1  0  0  0
 17 42  1  0  0  0
 17 18  1  0  0  0
 17 19  1  0  0  0
 18 65  1  0  0  0
 18 66  1  0  0  0
 18 67  1  0  0  0
 19 20  1  0  0  0
 19 68  1  0  0  0
 19 69  1  0  0  0
 20 43  1  0  0  0
 20 21  1  0  0  0
 20 24  1  0  0  0
 21 22  1  0  0  0
 21 70  1  0  0  0
 22 23  2  0  0  0
 24 44  1  0  0  0
 24 25  1  0  0  0
 24 26  1  0  0  0
 25 71  1  0  0  0
 26 27  1  0  0  0
 26 72  1  0  0  0
 26 73  1  0  0  0
 27 28  1  0  0  0
 27 74  1  0  0  0
 27 92  1  0  0  0
 28 30  1  0  0  0
 28 29  1  0  0  0
 28 31  1  0  0  0
 29 30  1  0  0  0
 29 75  1  0  0  0
 29 76  1  0  0  0
 30 77  1  0  0  0
 30 78  1  0  0  0
 31 36  1  0  0  0
 31 32  2  0  0  0
 32 33  1  0  0  0
 32 79  1  0  0  0
 33 34  2  0  0  0
 33 37  1  0  0  0
 34 35  1  0  0  0
 34 80  1  0  0  0
 35 36  2  0  0  0
 35 81  1  0  0  0
 36 82  1  0  0  0
 37 38  1  0  0  0
 37 39  1  0  0  0
 37 40  1  0  0  0
 38 83  1  0  0  0
 38 84  1  0  0  0
 38 85  1  0  0  0
 39 86  1  0  0  0
 39 87  1  0  0  0
 39 88  1  0  0  0
 40 89  1  0  0  0
 40 90  1  0  0  0
 40 91  1  0  0  0
M  CHG  1  27   1
M  END
> <s_m_source_file>
BACE_47.smi

> <i_m_source_file_index>
1

> <i_lp_mmshare_version>
42013

> <i_f3d_flags>
0

> <s_epik_input>
W0NIM11PW0NIMl1jKFtjSF1jMTIpbmMoW2NIXTEpW05IXVtDSDJdW0NIMl1bQ0gyXVtDSDJdT1tDSDJdW0NIMl1bQ0BASF0oW0NIM10pW0NIMl1bQ0BIXShbTkhdQzI9TylbQ0BIXShbT0hdKVtDSDJdW05IXUMzKFtDSDJdW0NIMl0zKWM0W2NIXWMoQyhbQ0gzXSkoW0NIM10pW0NIM10pW2NIXVtjSF1bY0hdNA==

> <s_epik_cmdline>
J2VwaWtfcHl0aG9uJywgJy1waCcsICc3LjAnLCAnLXRuJywgJzgnLCAnLW1hJywgJzIwMCcsICctaW1hZScsICc8aW5maWxlLm1hZT4nLCAnLW9tYWUnLCAnPG91dGZpbGUubWFlPic=

> <r_lp_tautomer_probability>
1

> <r_epik_Ionization_Penalty>
0.481834

> <r_epik_Ionization_Penalty_Charging>
0.481336

> <r_epik_Ionization_Penalty_Neutral>
0.000497814

> <r_epik_State_Penalty>
0.486345

> <r_epik_Charging_Adjusted_Penalty>
0.967681

> <i_epik_Tot_Q>
1

> <i_epik_Tot_abs_Q>
1

> <s_lp_Force_Field>
OPLS_2005

> <r_lp_Energy>
45.075

> <b_lp_Chiralities_Consistent>
1

> <s_lp_Variant>
BACE_47.smi:1-2

$$$$
