BACE_100.smi:1
                    3D
 Structure written by MMmdl.
 80 83  0  0  1  0            999 V2000
   -1.2033    4.8339    6.9456 C   0  0  0  0  0  0
   -2.2141    4.4341    6.0322 O   0  0  0  0  0  0
   -1.9307    4.4738    4.6822 C   0  0  0  0  0  0
   -0.6874    4.9056    4.1550 C   0  0  0  0  0  0
   -0.4595    4.9038    2.7675 C   0  0  0  0  0  0
   -1.4668    4.4675    1.8879 C   0  0  0  0  0  0
   -1.2120    4.4225    0.3877 C   0  0  0  0  0  0
   -0.6539    3.0737   -0.1335 C   0  0  2  0  0  0
   -1.3902    1.9501    0.4544 N   0  0  0  0  0  0
   -1.8922    0.8948   -0.2091 C   0  0  0  0  0  0
   -1.8090    0.7516   -1.4291 O   0  0  0  0  0  0
   -2.4711   -0.1876    0.6541 C   0  0  0  0  0  0
   -2.3735   -1.5361    0.2551 C   0  0  0  0  0  0
   -2.9180   -2.5343    1.0839 C   0  0  0  0  0  0
   -2.7770   -4.1834    0.5984 Cl  0  0  0  0  0  0
   -3.5413   -2.2535    2.2479 N   0  0  0  0  0  0
   -3.6568   -0.9650    2.6353 C   0  0  0  0  0  0
   -3.1377    0.1047    1.8659 C   0  0  0  0  0  0
   -4.3235   -0.7783    3.8554 N   0  0  0  0  0  0
   -4.6553    0.5447    4.3654 C   0  0  0  0  0  0
   -5.8976    1.1378    3.6768 C   0  0  0  0  0  0
   -6.2785    2.5457    4.1697 C   0  0  0  0  0  0
   -5.3511    3.6545    3.6497 C   0  0  0  0  0  0
   -4.1291    3.6223    4.3815 O   0  0  0  0  0  0
   -2.9557    4.0585    3.8008 C   0  0  0  0  0  0
   -2.7130    4.0605    2.4046 C   0  0  0  0  0  0
    0.8782    2.9244    0.0892 C   0  0  2  0  0  0
    1.5388    3.8169   -0.7885 O   0  0  0  0  0  0
    1.4160    1.5059   -0.1960 C   0  0  0  0  0  0
    2.8804    1.4069   -0.0123 N   0  3  0  0  0  0
    3.4112    0.0260    0.0377 C   0  0  0  0  0  0
    3.0378   -0.7897   -1.1885 C   0  0  0  0  0  0
    1.9193   -1.6498   -1.1507 C   0  0  0  0  0  0
    1.5467   -2.3926   -2.2910 C   0  0  0  0  0  0
    2.3102   -2.2734   -3.4731 C   0  0  0  0  0  0
    3.4318   -1.4227   -3.5119 C   0  0  0  0  0  0
    3.7960   -0.6810   -2.3720 C   0  0  0  0  0  0
    0.3259   -3.3023   -2.2387 C   0  0  0  0  0  0
    0.6922   -4.7694   -2.5113 C   0  0  0  0  0  0
   -0.7836   -2.8098   -3.1807 C   0  0  0  0  0  0
   -0.8178    3.0674   -1.2130 H   0  0  0  0  0  0
    1.1318    3.1925    1.1148 H   0  0  0  0  0  0
   -1.5807    4.7377    7.9635 H   0  0  0  0  0  0
   -0.9207    5.8769    6.7972 H   0  0  0  0  0  0
   -0.3175    4.2029    6.8616 H   0  0  0  0  0  0
    0.1140    5.2377    4.7971 H   0  0  0  0  0  0
    0.4966    5.2277    2.3830 H   0  0  0  0  0  0
   -2.1601    4.6239   -0.1129 H   0  0  0  0  0  0
   -0.5585    5.2485    0.1053 H   0  0  0  0  0  0
   -1.5007    1.9610    1.4584 H   0  0  0  0  0  0
   -1.8827   -1.8076   -0.6670 H   0  0  0  0  0  0
   -3.2455    1.1292    2.1883 H   0  0  0  0  0  0
   -4.6838   -1.5852    4.3448 H   0  0  0  0  0  0
   -4.8451    0.4523    5.4348 H   0  0  0  0  0  0
   -3.7894    1.1974    4.2719 H   0  0  0  0  0  0
   -5.7590    1.1597    2.5953 H   0  0  0  0  0  0
   -6.7409    0.4694    3.8544 H   0  0  0  0  0  0
   -7.2875    2.7611    3.8165 H   0  0  0  0  0  0
   -6.3308    2.5708    5.2587 H   0  0  0  0  0  0
   -5.2620    3.5439    2.5731 H   0  0  0  0  0  0
   -5.8112    4.6278    3.8227 H   0  0  0  0  0  0
   -3.4472    3.7129    1.6968 H   0  0  0  0  0  0
    1.2315    4.6942   -0.6154 H   0  0  0  0  0  0
    0.9537    0.7925    0.4869 H   0  0  0  0  0  0
    1.1520    1.2018   -1.2099 H   0  0  0  0  0  0
    3.3263    1.9027   -0.7712 H   0  0  0  0  0  0
    4.4970    0.0693    0.1291 H   0  0  0  0  0  0
    3.0420   -0.4694    0.9368 H   0  0  0  0  0  0
    1.3372   -1.7294   -0.2439 H   0  0  0  0  0  0
    2.0379   -2.8323   -4.3563 H   0  0  0  0  0  0
    4.0114   -1.3365   -4.4193 H   0  0  0  0  0  0
    4.6538   -0.0255   -2.4115 H   0  0  0  0  0  0
   -0.0716   -3.2615   -1.2240 H   0  0  0  0  0  0
    1.4470   -5.1217   -1.8077 H   0  0  0  0  0  0
    1.0840   -4.9083   -3.5191 H   0  0  0  0  0  0
   -0.1805   -5.4148   -2.4066 H   0  0  0  0  0  0
   -1.0634   -1.7806   -2.9537 H   0  0  0  0  0  0
   -1.6797   -3.4232   -3.0829 H   0  0  0  0  0  0
   -0.4701   -2.8454   -4.2244 H   0  0  0  0  0  0
    3.1227    1.8642    0.8547 H   0  0  0  0  0  0
  1  2  1  0  0  0
  1 43  1  0  0  0
  1 44  1  0  0  0
  1 45  1  0  0  0
  2  3  1  0  0  0
  3 25  1  0  0  0
  3  4  2  0  0  0
  4  5  1  0  0  0
  4 46  1  0  0  0
  5  6  2  0  0  0
  5 47  1  0  0  0
  6 26  1  0  0  0
  6  7  1  0  0  0
  7  8  1  0  0  0
  7 48  1  0  0  0
  7 49  1  0  0  0
  8 41  1  0  0  0
  8  9  1  0  0  0
  8 27  1  0  0  0
  9 10  1  0  0  0
  9 50  1  0  0  0
 10 11  2  0  0  0
 10 12  1  0  0  0
 12 18  1  0  0  0
 12 13  2  0  0  0
 13 14  1  0  0  0
 13 51  1  0  0  0
 14 15  1  0  0  0
 14 16  2  0  0  0
 16 17  1  0  0  0
 17 18  2  0  0  0
 17 19  1  0  0  0
 18 52  1  0  0  0
 19 20  1  0  0  0
 19 53  1  0  0  0
 20 21  1  0  0  0
 20 54  1  0  0  0
 20 55  1  0  0  0
 21 22  1  0  0  0
 21 56  1  0  0  0
 21 57  1  0  0  0
 22 23  1  0  0  0
 22 58  1  0  0  0
 22 59  1  0  0  0
 23 24  1  0  0  0
 23 60  1  0  0  0
 23 61  1  0  0  0
 24 25  1  0  0  0
 25 26  2  0  0  0
 26 62  1  0  0  0
 27 42  1  0  0  0
 27 28  1  0  0  0
 27 29  1  0  0  0
 28 63  1  0  0  0
 29 30  1  0  0  0
 29 64  1  0  0  0
 29 65  1  0  0  0
 30 31  1  0  0  0
 30 66  1  0  0  0
 30 80  1  0  0  0
 31 32  1  0  0  0
 31 67  1  0  0  0
 31 68  1  0  0  0
 32 37  1  0  0  0
 32 33  2  0  0  0
 33 34  1  0  0  0
 33 69  1  0  0  0
 34 35  2  0  0  0
 34 38  1  0  0  0
 35 36  1  0  0  0
 35 70  1  0  0  0
 36 37  2  0  0  0
 36 71  1  0  0  0
 37 72  1  0  0  0
 38 39  1  0  0  0
 38 40  1  0  0  0
 38 73  1  0  0  0
 39 74  1  0  0  0
 39 75  1  0  0  0
 39 76  1  0  0  0
 40 77  1  0  0  0
 40 78  1  0  0  0
 40 79  1  0  0  0
M  CHG  1  30   1
M  END
> <s_m_source_file>
BACE_100.smi

> <i_m_source_file_index>
1

> <i_lp_mmshare_version>
42013

> <i_f3d_flags>
0

> <s_epik_input>
YzEyW2NIXVtjSF1jKE9bQ0gzXSljKFtjSF0yKU9bQ0gyXVtDSDJdW0NIMl1bQ0gyXVtOSF1jM25jKENsKVtjSF1jKFtjSF0zKUMoPU8pW05IXVtDQEBIXShbQ0gyXTEpW0NASF0oW09IXSlbQ0gyXVtOSF1bQ0gyXWM0W2NIXWMoW0NIXShbQ0gzXSlbQ0gzXSlbY0hdW2NIXVtjSF00

> <s_epik_cmdline>
J2VwaWtfcHl0aG9uJywgJy1waCcsICc3LjAnLCAnLXRuJywgJzgnLCAnLW1hJywgJzIwMCcsICctaW1hZScsICc8aW5maWxlLm1hZT4nLCAnLW9tYWUnLCAnPG91dGZpbGUubWFlPic=

> <r_lp_tautomer_probability>
1

> <r_epik_Ionization_Penalty>
0.0200589

> <r_epik_Ionization_Penalty_Charging>
0.0200546

> <r_epik_Ionization_Penalty_Neutral>
4.28265e-06

> <r_epik_State_Penalty>
0.0160525

> <r_epik_Charging_Adjusted_Penalty>
0.0361071

> <i_epik_Tot_Q>
1

> <i_epik_Tot_abs_Q>
1

> <s_lp_Force_Field>
OPLS_2005

> <r_lp_Energy>
27.5194

> <b_lp_Chiralities_Consistent>
1

> <s_lp_Variant>
BACE_100.smi:1-1

$$$$
BACE_100.smi:1
                    3D
 Structure written by MMmdl.
 79 82  0  0  1  0            999 V2000
    0.2838    8.1113    3.1423 C   0  0  0  0  0  0
   -0.6327    7.1126    3.5664 O   0  0  0  0  0  0
   -1.0370    6.1622    2.6510 C   0  0  0  0  0  0
   -0.5758    6.1206    1.3126 C   0  0  0  0  0  0
   -1.0397    5.1322    0.4288 C   0  0  0  0  0  0
   -1.9606    4.1609    0.8654 C   0  0  0  0  0  0
   -2.4794    3.1198   -0.1199 C   0  0  0  0  0  0
   -1.7676    1.7412   -0.0892 C   0  0  2  0  0  0
   -2.3162    0.9240    0.9929 N   0  0  0  0  0  0
   -3.3660    0.0892    0.8923 C   0  0  0  0  0  0
   -4.0070   -0.0763   -0.1459 O   0  0  0  0  0  0
   -3.6928   -0.6971    2.1310 C   0  0  0  0  0  0
   -4.3996   -1.9155    2.0478 C   0  0  0  0  0  0
   -4.7211   -2.6005    3.2369 C   0  0  0  0  0  0
   -5.5815   -4.0915    3.1318 Cl  0  0  0  0  0  0
   -4.3890   -2.1361    4.4614 N   0  0  0  0  0  0
   -3.7185   -0.9684    4.5556 C   0  0  0  0  0  0
   -3.3457   -0.2206    3.4131 C   0  0  0  0  0  0
   -3.4303   -0.5435    5.8627 N   0  0  0  0  0  0
   -2.6125    0.6391    6.0985 C   0  0  0  0  0  0
   -3.3873    1.9500    5.8627 C   0  0  0  0  0  0
   -2.4680    3.0874    5.4001 C   0  0  0  0  0  0
   -3.2505    4.3402    4.9769 C   0  0  0  0  0  0
   -2.3783    5.3124    4.4135 O   0  0  0  0  0  0
   -1.9637    5.1930    3.0998 C   0  0  0  0  0  0
   -2.4159    4.1894    2.2007 C   0  0  0  0  0  0
   -0.2210    1.8055    0.0151 C   0  0  2  0  0  0
    0.2659    2.4786   -1.1302 O   0  0  0  0  0  0
    0.4557    0.4181    0.0391 C   0  0  0  0  0  0
    1.8301    0.5080    0.5284 N   0  0  0  0  0  0
    2.5180   -0.7772    0.6245 C   0  0  0  0  0  0
    2.9040   -1.3458   -0.7286 C   0  0  0  0  0  0
    3.8179   -0.6559   -1.5530 C   0  0  0  0  0  0
    4.1782   -1.1756   -2.8150 C   0  0  0  0  0  0
    3.6179   -2.3989   -3.2446 C   0  0  0  0  0  0
    2.7068   -3.0907   -2.4237 C   0  0  0  0  0  0
    2.3495   -2.5655   -1.1676 C   0  0  0  0  0  0
    5.1623   -0.4189   -3.6982 C   0  0  0  0  0  0
    4.5236    0.0008   -5.0316 C   0  0  0  0  0  0
    6.4562   -1.2182   -3.9158 C   0  0  0  0  0  0
   -2.0048    1.2363   -1.0280 H   0  0  0  0  0  0
    0.0640    2.3625    0.9087 H   0  0  0  0  0  0
    0.4930    8.7833    3.9744 H   0  0  0  0  0  0
   -0.1279    8.7121    2.3302 H   0  0  0  0  0  0
    1.2319    7.6746    2.8257 H   0  0  0  0  0  0
    0.1310    6.8429    0.9342 H   0  0  0  0  0  0
   -0.6847    5.1252   -0.5915 H   0  0  0  0  0  0
   -3.5536    2.9975    0.0262 H   0  0  0  0  0  0
   -2.3792    3.5367   -1.1229 H   0  0  0  0  0  0
   -1.8482    0.9817    1.8856 H   0  0  0  0  0  0
   -4.6960   -2.3231    1.0919 H   0  0  0  0  0  0
   -2.8171    0.7147    3.5078 H   0  0  0  0  0  0
   -3.7011   -1.1190    6.6475 H   0  0  0  0  0  0
   -2.2366    0.6121    7.1214 H   0  0  0  0  0  0
   -1.7314    0.5842    5.4581 H   0  0  0  0  0  0
   -4.1547    1.8052    5.1019 H   0  0  0  0  0  0
   -3.9231    2.2337    6.7691 H   0  0  0  0  0  0
   -1.7603    3.3418    6.1899 H   0  0  0  0  0  0
   -1.8701    2.7361    4.5592 H   0  0  0  0  0  0
   -4.0797    4.1068    4.3088 H   0  0  0  0  0  0
   -3.7093    4.7839    5.8607 H   0  0  0  0  0  0
   -3.1222    3.4341    2.5087 H   0  0  0  0  0  0
    0.0630    1.9588   -1.8927 H   0  0  0  0  0  0
   -0.0942   -0.2524    0.6990 H   0  0  0  0  0  0
    0.4228   -0.0385   -0.9509 H   0  0  0  0  0  0
    1.8560    0.9858    1.4233 H   0  0  0  0  0  0
    3.4377   -0.6499    1.1961 H   0  0  0  0  0  0
    1.9124   -1.4950    1.1794 H   0  0  0  0  0  0
    4.2403    0.2782   -1.2120 H   0  0  0  0  0  0
    3.8838   -2.8119   -4.2065 H   0  0  0  0  0  0
    2.2813   -4.0251   -2.7589 H   0  0  0  0  0  0
    1.6481   -3.1001   -0.5441 H   0  0  0  0  0  0
    5.4381    0.4980   -3.1756 H   0  0  0  0  0  0
    3.6342    0.6089   -4.8649 H   0  0  0  0  0  0
    4.2300   -0.8628   -5.6287 H   0  0  0  0  0  0
    5.2182    0.5918   -5.6287 H   0  0  0  0  0  0
    6.9321   -1.4580   -2.9644 H   0  0  0  0  0  0
    7.1730   -0.6486   -4.5074 H   0  0  0  0  0  0
    6.2671   -2.1552   -4.4400 H   0  0  0  0  0  0
  1  2  1  0  0  0
  1 43  1  0  0  0
  1 44  1  0  0  0
  1 45  1  0  0  0
  2  3  1  0  0  0
  3 25  1  0  0  0
  3  4  2  0  0  0
  4  5  1  0  0  0
  4 46  1  0  0  0
  5  6  2  0  0  0
  5 47  1  0  0  0
  6 26  1  0  0  0
  6  7  1  0  0  0
  7  8  1  0  0  0
  7 48  1  0  0  0
  7 49  1  0  0  0
  8 41  1  0  0  0
  8  9  1  0  0  0
  8 27  1  0  0  0
  9 10  1  0  0  0
  9 50  1  0  0  0
 10 11  2  0  0  0
 10 12  1  0  0  0
 12 18  1  0  0  0
 12 13  2  0  0  0
 13 14  1  0  0  0
 13 51  1  0  0  0
 14 15  1  0  0  0
 14 16  2  0  0  0
 16 17  1  0  0  0
 17 18  2  0  0  0
 17 19  1  0  0  0
 18 52  1  0  0  0
 19 20  1  0  0  0
 19 53  1  0  0  0
 20 21  1  0  0  0
 20 54  1  0  0  0
 20 55  1  0  0  0
 21 22  1  0  0  0
 21 56  1  0  0  0
 21 57  1  0  0  0
 22 23  1  0  0  0
 22 58  1  0  0  0
 22 59  1  0  0  0
 23 24  1  0  0  0
 23 60  1  0  0  0
 23 61  1  0  0  0
 24 25  1  0  0  0
 25 26  2  0  0  0
 26 62  1  0  0  0
 27 42  1  0  0  0
 27 28  1  0  0  0
 27 29  1  0  0  0
 28 63  1  0  0  0
 29 30  1  0  0  0
 29 64  1  0  0  0
 29 65  1  0  0  0
 30 31  1  0  0  0
 30 66  1  0  0  0
 31 32  1  0  0  0
 31 67  1  0  0  0
 31 68  1  0  0  0
 32 37  1  0  0  0
 32 33  2  0  0  0
 33 34  1  0  0  0
 33 69  1  0  0  0
 34 35  2  0  0  0
 34 38  1  0  0  0
 35 36  1  0  0  0
 35 70  1  0  0  0
 36 37  2  0  0  0
 36 71  1  0  0  0
 37 72  1  0  0  0
 38 39  1  0  0  0
 38 40  1  0  0  0
 38 73  1  0  0  0
 39 74  1  0  0  0
 39 75  1  0  0  0
 39 76  1  0  0  0
 40 77  1  0  0  0
 40 78  1  0  0  0
 40 79  1  0  0  0
M  END
> <s_m_source_file>
BACE_100.smi

> <i_m_source_file_index>
1

> <i_lp_mmshare_version>
42013

> <i_f3d_flags>
0

> <s_epik_input>
YzEyW2NIXVtjSF1jKE9bQ0gzXSljKFtjSF0yKU9bQ0gyXVtDSDJdW0NIMl1bQ0gyXVtOSF1jM25jKENsKVtjSF1jKFtjSF0zKUMoPU8pW05IXVtDQEBIXShbQ0gyXTEpW0NASF0oW09IXSlbQ0gyXVtOSF1bQ0gyXWM0W2NIXWMoW0NIXShbQ0gzXSlbQ0gzXSlbY0hdW2NIXVtjSF00

> <s_epik_cmdline>
J2VwaWtfcHl0aG9uJywgJy1waCcsICc3LjAnLCAnLXRuJywgJzgnLCAnLW1hJywgJzIwMCcsICctaW1hZScsICc8aW5maWxlLm1hZT4nLCAnLW9tYWUnLCAnPG91dGZpbGUubWFlPic=

> <r_lp_tautomer_probability>
1

> <r_epik_Ionization_Penalty>
2.01608

> <r_epik_Ionization_Penalty_Charging>
0

> <r_epik_Ionization_Penalty_Neutral>
2.01608

> <r_epik_State_Penalty>
2.14597

> <r_epik_Charging_Adjusted_Penalty>
2.14597

> <i_epik_Tot_Q>
0

> <i_epik_Tot_abs_Q>
0

> <s_lp_Force_Field>
OPLS_2005

> <r_lp_Energy>
35.4655

> <b_lp_Chiralities_Consistent>
1

> <s_lp_Variant>
BACE_100.smi:1-2

$$$$
