BACE_152.smi:1
                    3D
 Structure written by MMmdl.
 78 79  0  0  1  0            999 V2000
    0.5711   -3.4819   -3.9566 C   0  0  0  0  0  0
   -0.1073   -2.3185   -3.2257 C   0  0  0  0  0  0
   -1.4665   -2.7127   -2.6261 C   0  0  0  0  0  0
   -2.2219   -1.5486   -1.9607 C   0  0  0  0  0  0
   -1.6023   -1.1141   -0.7119 N   0  0  0  0  0  0
   -0.7509   -0.0854   -0.5774 C   0  0  0  0  0  0
   -0.3402    0.5806   -1.5283 O   0  0  0  0  0  0
   -0.3004    0.2502    0.8530 C   0  0  2  0  0  0
   -0.7748    1.6648    1.2282 C   0  0  0  0  0  0
    1.2313    0.1234    1.0190 C   0  0  0  0  0  0
    1.7724   -1.3251    0.9618 C   0  0  2  0  0  0
    1.3958   -2.0225    2.1325 O   0  0  0  0  0  0
    3.3106   -1.4245    0.7693 C   0  0  2  0  0  0
    4.1116   -0.6177    1.8277 C   0  0  0  0  0  0
    5.6472   -0.8495    1.8671 C   0  0  2  0  0  0
    6.2062   -0.5989    3.2788 C   0  0  0  0  0  0
    6.4597   -0.0692    0.8023 C   0  0  0  0  0  0
    6.4505    1.4722    0.9419 C   0  0  0  0  0  0
    7.1245    2.2225   -0.2250 C   0  0  0  0  0  0
    6.3700    2.0312   -1.5475 C   0  0  0  0  0  0
    6.7972    2.9443   -2.7051 C   0  0  0  0  0  0
    6.4213    2.3880   -4.0958 C   0  0  0  0  0  0
    4.9859    2.2063   -4.3201 N   0  0  0  0  0  0
    4.6134    0.8567   -4.2670 C   0  0  0  0  0  0
    4.1058    0.3049   -3.0745 C   0  0  0  0  0  0
    3.9080   -1.0899   -2.9903 C   0  0  0  0  0  0
    4.1310   -1.8590   -4.1532 C   0  0  0  0  0  0
    4.5599   -1.2064   -5.3367 C   0  0  0  0  0  0
    4.8076    0.1213   -5.3825 N   0  0  0  0  0  0
    4.7846   -1.8414   -6.5384 O   0  0  0  0  0  0
    4.4910   -3.2282   -6.6204 C   0  0  0  0  0  0
    3.4716   -1.7417   -1.7063 C   0  0  0  0  0  0
    3.0142   -2.8849   -1.6993 O   0  0  0  0  0  0
    3.6619   -1.0163   -0.5892 N   0  0  0  0  0  0
   -0.7818   -0.4457    1.5421 H   0  0  0  0  0  0
    1.2900   -1.8546    0.1404 H   0  0  0  0  0  0
    3.5938   -2.4737    0.8754 H   0  0  0  0  0  0
    5.8112   -1.9094    1.6687 H   0  0  0  0  0  0
    1.5257   -3.1706   -4.3798 H   0  0  0  0  0  0
   -0.0488   -3.8501   -4.7745 H   0  0  0  0  0  0
    0.7637   -4.3135   -3.2781 H   0  0  0  0  0  0
    0.5530   -1.9591   -2.4381 H   0  0  0  0  0  0
   -0.2388   -1.4875   -3.9197 H   0  0  0  0  0  0
   -2.0933   -3.1174   -3.4219 H   0  0  0  0  0  0
   -1.3323   -3.5220   -1.9072 H   0  0  0  0  0  0
   -2.3314   -0.7153   -2.6568 H   0  0  0  0  0  0
   -3.2343   -1.8735   -1.7202 H   0  0  0  0  0  0
   -1.8752   -1.6092    0.1247 H   0  0  0  0  0  0
   -1.8505    1.7756    1.0848 H   0  0  0  0  0  0
   -0.2777    2.4277    0.6278 H   0  0  0  0  0  0
   -0.5638    1.8810    2.2758 H   0  0  0  0  0  0
    1.7182    0.7257    0.2506 H   0  0  0  0  0  0
    1.5254    0.5752    1.9671 H   0  0  0  0  0  0
    1.6805   -2.9200    2.0509 H   0  0  0  0  0  0
    3.8927    0.4448    1.7399 H   0  0  0  0  0  0
    3.7152   -0.9002    2.8033 H   0  0  0  0  0  0
    6.0188    0.4228    3.6097 H   0  0  0  0  0  0
    7.2824   -0.7708    3.3138 H   0  0  0  0  0  0
    5.7475   -1.2680    4.0076 H   0  0  0  0  0  0
    7.4962   -0.4070    0.8376 H   0  0  0  0  0  0
    6.1092   -0.3618   -0.1831 H   0  0  0  0  0  0
    5.4300    1.8400    1.0371 H   0  0  0  0  0  0
    6.9549    1.7509    1.8670 H   0  0  0  0  0  0
    7.1567    3.2855    0.0166 H   0  0  0  0  0  0
    8.1604    1.8996   -0.3341 H   0  0  0  0  0  0
    6.4815    0.9953   -1.8648 H   0  0  0  0  0  0
    5.3139    2.2089   -1.3566 H   0  0  0  0  0  0
    6.3754    3.9403   -2.5664 H   0  0  0  0  0  0
    7.8803    3.0677   -2.6774 H   0  0  0  0  0  0
    6.7826    3.0770   -4.8593 H   0  0  0  0  0  0
    6.9588    1.4534   -4.2669 H   0  0  0  0  0  0
    4.7427    2.6137   -5.2115 H   0  0  0  0  0  0
    3.9033    0.9404   -2.2287 H   0  0  0  0  0  0
    3.9715   -2.9264   -4.1239 H   0  0  0  0  0  0
    4.6781   -3.5763   -7.6361 H   0  0  0  0  0  0
    3.4433   -3.4278   -6.3908 H   0  0  0  0  0  0
    5.1252   -3.8098   -5.9503 H   0  0  0  0  0  0
    4.0667   -0.0971   -0.6939 H   0  0  0  0  0  0
  1  2  1  0  0  0
  1 39  1  0  0  0
  1 40  1  0  0  0
  1 41  1  0  0  0
  2  3  1  0  0  0
  2 42  1  0  0  0
  2 43  1  0  0  0
  3  4  1  0  0  0
  3 44  1  0  0  0
  3 45  1  0  0  0
  4  5  1  0  0  0
  4 46  1  0  0  0
  4 47  1  0  0  0
  5  6  1  0  0  0
  5 48  1  0  0  0
  6  7  2  0  0  0
  6  8  1  0  0  0
  8 35  1  0  0  0
  8  9  1  0  0  0
  8 10  1  0  0  0
  9 49  1  0  0  0
  9 50  1  0  0  0
  9 51  1  0  0  0
 10 11  1  0  0  0
 10 52  1  0  0  0
 10 53  1  0  0  0
 11 36  1  0  0  0
 11 12  1  0  0  0
 11 13  1  0  0  0
 12 54  1  0  0  0
 13 37  1  0  0  0
 13 34  1  0  0  0
 13 14  1  0  0  0
 14 15  1  0  0  0
 14 55  1  0  0  0
 14 56  1  0  0  0
 15 38  1  0  0  0
 15 16  1  0  0  0
 15 17  1  0  0  0
 16 57  1  0  0  0
 16 58  1  0  0  0
 16 59  1  0  0  0
 17 18  1  0  0  0
 17 60  1  0  0  0
 17 61  1  0  0  0
 18 19  1  0  0  0
 18 62  1  0  0  0
 18 63  1  0  0  0
 19 20  1  0  0  0
 19 64  1  0  0  0
 19 65  1  0  0  0
 20 21  1  0  0  0
 20 66  1  0  0  0
 20 67  1  0  0  0
 21 22  1  0  0  0
 21 68  1  0  0  0
 21 69  1  0  0  0
 22 23  1  0  0  0
 22 70  1  0  0  0
 22 71  1  0  0  0
 23 24  1  0  0  0
 23 72  1  0  0  0
 24 29  1  0  0  0
 24 25  2  0  0  0
 25 26  1  0  0  0
 25 73  1  0  0  0
 26 27  2  0  0  0
 26 32  1  0  0  0
 27 28  1  0  0  0
 27 74  1  0  0  0
 28 29  2  0  0  0
 28 30  1  0  0  0
 30 31  1  0  0  0
 31 75  1  0  0  0
 31 76  1  0  0  0
 31 77  1  0  0  0
 32 33  2  0  0  0
 32 34  1  0  0  0
 34 78  1  0  0  0
M  END
> <s_m_source_file>
BACE_152.smi

> <i_m_source_file_index>
1

> <i_lp_mmshare_version>
42013

> <i_f3d_flags>
0

> <s_epik_input>
W0NIM11bQ0gyXVtDSDJdW0NIMl1bTkhdQyg9TylbQ0BIXShbQ0gzXSlbQ0gyXVtDQEhdKFtPSF0pW0NAQEhdKFtOSF1DKD1PKWMoW2NIXWMxMilbY0hdYyhuMilPW0NIM10pW0NIMl1bQ0BIXShbQ0gzXSlbQ0gyXVtDSDJdW0NIMl1bQ0gyXVtDSDJdW0NIMl1bTkhdMQ==

> <s_epik_cmdline>
J2VwaWtfcHl0aG9uJywgJy1waCcsICc3LjAnLCAnLXRuJywgJzgnLCAnLW1hJywgJzIwMCcsICctaW1hZScsICc8aW5maWxlLm1hZT4nLCAnLW9tYWUnLCAnPG91dGZpbGUubWFlPic=

> <r_lp_tautomer_probability>
1

> <r_epik_Ionization_Penalty>
3.32145e-05

> <r_epik_Ionization_Penalty_Charging>
0

> <r_epik_Ionization_Penalty_Neutral>
3.32145e-05

> <r_epik_State_Penalty>
-0

> <r_epik_Charging_Adjusted_Penalty>
0

> <i_epik_Tot_Q>
0

> <i_epik_Tot_abs_Q>
0

> <s_lp_Force_Field>
OPLS_2005

> <r_lp_Energy>
26.1602

> <b_lp_Chiralities_Consistent>
1

> <s_lp_Variant>
BACE_152.smi:1-1

$$$$
