BACE_44.smi:1
                    3D
 Structure written by MMmdl.
 83 85  0  0  1  0            999 V2000
   -4.8521   -0.2303   -3.0970 C   0  0  0  0  0  0
   -5.1199    1.1548   -2.4864 C   0  0  0  0  0  0
   -4.9718    2.2742   -3.5285 C   0  0  0  0  0  0
   -4.2470    1.4119   -1.2645 C   0  0  0  0  0  0
   -4.8429    1.6599   -0.0092 C   0  0  0  0  0  0
   -4.0409    1.9029    1.1225 C   0  0  0  0  0  0
   -2.6379    1.8989    1.0080 C   0  0  0  0  0  0
   -2.0329    1.6506   -0.2413 C   0  0  0  0  0  0
   -0.5237    1.6304   -0.3685 C   0  0  0  0  0  0
    0.0002    0.2928   -0.0359 N   0  3  0  0  0  0
    1.4431    0.1288   -0.2984 C   0  0  0  0  0  0
    1.9354   -1.2705    0.1271 C   0  0  1  0  0  0
    1.2817   -2.2591   -0.6447 O   0  0  0  0  0  0
    3.4776   -1.4829    0.0510 C   0  0  2  0  0  0
    4.1698   -0.9220    1.3208 C   0  0  0  0  0  0
    5.5722   -1.4909    1.6567 C   0  0  2  0  0  0
    5.9789   -1.1182    3.0934 C   0  0  0  0  0  0
    6.6940   -1.1373    0.6542 C   0  0  0  0  0  0
    6.9457    0.3677    0.4458 C   0  0  0  0  0  0
    8.0759    0.6331   -0.5607 C   0  0  0  0  0  0
    8.0538    2.0725   -1.1087 C   0  0  0  0  0  0
    8.8948    2.2628   -2.3835 C   0  0  0  0  0  0
    8.3202    1.5713   -3.6385 C   0  0  0  0  0  0
    7.0783    2.1772   -4.1184 N   0  0  0  0  0  0
    7.1683    3.3714   -4.9506 C   0  0  0  0  0  0
    5.9742    1.3196   -4.3066 C   0  0  0  0  0  0
    5.5638    0.4521   -3.2686 C   0  0  0  0  0  0
    4.4660   -0.4103   -3.4708 C   0  0  0  0  0  0
    3.8243   -0.3860   -4.7262 C   0  0  0  0  0  0
    4.2888    0.5198   -5.7013 C   0  0  0  0  0  0
    3.6279    0.6046   -7.0611 C   0  0  0  0  0  0
    5.3298    1.3561   -5.4979 N   0  0  0  0  0  0
    4.0016   -1.3450   -2.3921 C   0  0  0  0  0  0
    3.5471   -2.4539   -2.6714 O   0  0  0  0  0  0
    4.0394   -0.8457   -1.1436 N   0  0  0  0  0  0
   -2.8389    1.4091   -1.3732 C   0  0  0  0  0  0
    1.6076   -1.4543    1.1508 H   0  0  0  0  0  0
    3.6820   -2.5551    0.0202 H   0  0  0  0  0  0
    5.4824   -2.5779    1.6449 H   0  0  0  0  0  0
   -5.0076   -1.0193   -2.3605 H   0  0  0  0  0  0
   -3.8315   -0.3187   -3.4700 H   0  0  0  0  0  0
   -5.5243   -0.4252   -3.9331 H   0  0  0  0  0  0
   -6.1598    1.1602   -2.1571 H   0  0  0  0  0  0
   -5.2190    3.2446   -3.0969 H   0  0  0  0  0  0
   -5.6390    2.1123   -4.3754 H   0  0  0  0  0  0
   -3.9542    2.3320   -3.9161 H   0  0  0  0  0  0
   -5.9184    1.6670    0.0925 H   0  0  0  0  0  0
   -4.5039    2.0922    2.0798 H   0  0  0  0  0  0
   -2.0296    2.0835    1.8814 H   0  0  0  0  0  0
   -0.2405    1.8972   -1.3878 H   0  0  0  0  0  0
   -0.0825    2.3759    0.2944 H   0  0  0  0  0  0
   -0.1805    0.1084    0.9403 H   0  0  0  0  0  0
    1.6287    0.3037   -1.3591 H   0  0  0  0  0  0
    1.9871    0.8951    0.2549 H   0  0  0  0  0  0
    1.6017   -3.1094   -0.3821 H   0  0  0  0  0  0
    4.1939    0.1676    1.2891 H   0  0  0  0  0  0
    3.5364   -1.1584    2.1764 H   0  0  0  0  0  0
    6.0277   -0.0379    3.2312 H   0  0  0  0  0  0
    6.9555   -1.5309    3.3481 H   0  0  0  0  0  0
    5.2642   -1.5083    3.8185 H   0  0  0  0  0  0
    7.6218   -1.6052    0.9856 H   0  0  0  0  0  0
    6.4723   -1.6012   -0.3067 H   0  0  0  0  0  0
    6.0296    0.8321    0.0831 H   0  0  0  0  0  0
    7.1838    0.8572    1.3898 H   0  0  0  0  0  0
    9.0427    0.4232   -0.1017 H   0  0  0  0  0  0
    7.9862   -0.0780   -1.3799 H   0  0  0  0  0  0
    7.0303    2.3868   -1.3145 H   0  0  0  0  0  0
    8.4164    2.7468   -0.3322 H   0  0  0  0  0  0
    9.0101    3.3291   -2.5798 H   0  0  0  0  0  0
    9.9016    1.8867   -2.1999 H   0  0  0  0  0  0
    9.0524    1.6543   -4.4425 H   0  0  0  0  0  0
    8.2023    0.5006   -3.4755 H   0  0  0  0  0  0
    6.2181    3.9064   -4.9639 H   0  0  0  0  0  0
    7.4339    3.1081   -5.9748 H   0  0  0  0  0  0
    7.9285    4.0522   -4.5678 H   0  0  0  0  0  0
    6.0770    0.4524   -2.3242 H   0  0  0  0  0  0
    2.9862   -1.0359   -4.9339 H   0  0  0  0  0  0
    2.7518   -0.0420   -7.1168 H   0  0  0  0  0  0
    4.3267    0.2994   -7.8404 H   0  0  0  0  0  0
    3.3086    1.6268   -7.2660 H   0  0  0  0  0  0
    4.4350    0.0757   -1.0237 H   0  0  0  0  0  0
   -2.3740    1.2207   -2.3300 H   0  0  0  0  0  0
   -0.4959   -0.3915   -0.5894 H   0  0  0  0  0  0
  1  2  1  0  0  0
  1 40  1  0  0  0
  1 41  1  0  0  0
  1 42  1  0  0  0
  2  3  1  0  0  0
  2  4  1  0  0  0
  2 43  1  0  0  0
  3 44  1  0  0  0
  3 45  1  0  0  0
  3 46  1  0  0  0
  4 36  1  0  0  0
  4  5  2  0  0  0
  5  6  1  0  0  0
  5 47  1  0  0  0
  6  7  2  0  0  0
  6 48  1  0  0  0
  7  8  1  0  0  0
  7 49  1  0  0  0
  8  9  1  0  0  0
  8 36  2  0  0  0
  9 10  1  0  0  0
  9 50  1  0  0  0
  9 51  1  0  0  0
 10 11  1  0  0  0
 10 52  1  0  0  0
 10 83  1  0  0  0
 11 12  1  0  0  0
 11 53  1  0  0  0
 11 54  1  0  0  0
 12 37  1  0  0  0
 12 13  1  0  0  0
 12 14  1  0  0  0
 13 55  1  0  0  0
 14 38  1  0  0  0
 14 35  1  0  0  0
 14 15  1  0  0  0
 15 16  1  0  0  0
 15 56  1  0  0  0
 15 57  1  0  0  0
 16 39  1  0  0  0
 16 17  1  0  0  0
 16 18  1  0  0  0
 17 58  1  0  0  0
 17 59  1  0  0  0
 17 60  1  0  0  0
 18 19  1  0  0  0
 18 61  1  0  0  0
 18 62  1  0  0  0
 19 20  1  0  0  0
 19 63  1  0  0  0
 19 64  1  0  0  0
 20 21  1  0  0  0
 20 65  1  0  0  0
 20 66  1  0  0  0
 21 22  1  0  0  0
 21 67  1  0  0  0
 21 68  1  0  0  0
 22 23  1  0  0  0
 22 69  1  0  0  0
 22 70  1  0  0  0
 23 24  1  0  0  0
 23 71  1  0  0  0
 23 72  1  0  0  0
 24 25  1  0  0  0
 24 26  1  0  0  0
 25 73  1  0  0  0
 25 74  1  0  0  0
 25 75  1  0  0  0
 26 32  1  0  0  0
 26 27  2  0  0  0
 27 28  1  0  0  0
 27 76  1  0  0  0
 28 29  2  0  0  0
 28 33  1  0  0  0
 29 30  1  0  0  0
 29 77  1  0  0  0
 30 31  1  0  0  0
 30 32  2  0  0  0
 31 78  1  0  0  0
 31 79  1  0  0  0
 31 80  1  0  0  0
 33 34  2  0  0  0
 33 35  1  0  0  0
 35 81  1  0  0  0
 36 82  1  0  0  0
M  CHG  1  10   1
M  END
> <s_m_source_file>
BACE_44.smi

> <i_m_source_file_index>
1

> <i_lp_mmshare_version>
42013

> <i_f3d_flags>
0

> <s_epik_input>
W0NIM11bQ0hdKFtDSDNdKWMxW2NIXVtjSF1bY0hdYyhbY0hdMSlbQ0gyXVtOSF1bQ0gyXVtDQEBIXShbT0hdKVtDQEBIXShbTkhdQyg9TyljKFtjSF1jMjMpW2NIXWMobjMpW0NIM10pW0NIMl1bQ0BIXShbQ0gzXSlbQ0gyXVtDSDJdW0NIMl1bQ0gyXVtDSDJdW0NIMl1OMltDSDNd

> <s_epik_cmdline>
J2VwaWtfcHl0aG9uJywgJy1waCcsICc3LjAnLCAnLXRuJywgJzgnLCAnLW1hJywgJzIwMCcsICctaW1hZScsICc8aW5maWxlLm1hZT4nLCAnLW9tYWUnLCAnPG91dGZpbGUubWFlPic=

> <r_lp_tautomer_probability>
1

> <r_epik_Ionization_Penalty>
0.0421574

> <r_epik_Ionization_Penalty_Charging>
0.017325

> <r_epik_Ionization_Penalty_Neutral>
0.0248325

> <r_epik_State_Penalty>
0.0348185

> <r_epik_Charging_Adjusted_Penalty>
0.0521435

> <i_epik_Tot_Q>
1

> <i_epik_Tot_abs_Q>
1

> <s_lp_Force_Field>
OPLS_2005

> <r_lp_Energy>
27.1733

> <b_lp_Chiralities_Consistent>
1

> <s_lp_Variant>
BACE_44.smi:1-1

$$$$
BACE_44.smi:1
                    3D
 Structure written by MMmdl.
 84 86  0  0  1  0            999 V2000
    1.1410    2.2043    5.3934 C   0  0  0  0  0  0
    0.6315    2.9394    4.1412 C   0  0  0  0  0  0
    0.1197    4.3454    4.4838 C   0  0  0  0  0  0
   -0.4223    2.1438    3.3786 C   0  0  0  0  0  0
   -1.5070    1.5375    4.0502 C   0  0  0  0  0  0
   -2.4640    0.7967    3.3309 C   0  0  0  0  0  0
   -2.3470    0.6584    1.9352 C   0  0  0  0  0  0
   -1.2773    1.2714    1.2509 C   0  0  0  0  0  0
   -1.1528    1.1173   -0.2565 C   0  0  0  0  0  0
   -0.4008   -0.1022   -0.6219 N   0  3  0  0  0  0
    1.0637    0.0012   -0.4503 C   0  0  0  0  0  0
    1.7526   -1.3740   -0.5848 C   0  0  1  0  0  0
    1.6987   -1.7161   -1.9561 O   0  0  0  0  0  0
    3.2408   -1.3852   -0.1231 C   0  0  2  0  0  0
    3.8894   -2.7986   -0.1571 C   0  0  0  0  0  0
    5.4445   -2.8169   -0.1342 C   0  0  2  0  0  0
    6.0085   -3.9117   -1.0572 C   0  0  0  0  0  0
    6.0744   -2.8814    1.2807 C   0  0  0  0  0  0
    5.9935   -4.2526    1.9925 C   0  0  0  0  0  0
    6.5068   -4.2495    3.4492 C   0  0  0  0  0  0
    5.6086   -3.4149    4.3700 C   0  0  0  0  0  0
    5.8587   -3.5436    5.8834 C   0  0  0  0  0  0
    4.7364   -2.9192    6.7545 C   0  0  0  0  0  0
    4.7839   -1.4564    6.8755 N   0  0  0  0  0  0
    5.7285   -0.8898    7.8333 C   0  0  0  0  0  0
    4.3851   -0.6452    5.7854 C   0  0  0  0  0  0
    3.5761   -1.1214    4.7268 C   0  0  0  0  0  0
    3.4439   -0.3667    3.5432 C   0  0  0  0  0  0
    3.9598    0.9476    3.5098 C   0  0  0  0  0  0
    4.6480    1.4368    4.6378 C   0  0  0  0  0  0
    5.2231    2.8359    4.6824 C   0  0  0  0  0  0
    4.8506    0.6268    5.7010 N   0  3  0  0  0  0
    2.8205   -0.9981    2.3370 C   0  0  0  0  0  0
    1.8690   -1.7702    2.4491 O   0  0  0  0  0  0
    3.4555   -0.7407    1.1776 N   0  0  0  0  0  0
   -0.3249    2.0199    1.9759 C   0  0  0  0  0  0
    1.1904   -2.1239   -0.0271 H   0  0  0  0  0  0
    3.7824   -0.7576   -0.8322 H   0  0  0  0  0  0
    5.7789   -1.8753   -0.5713 H   0  0  0  0  0  0
    1.4940    1.2033    5.1464 H   0  0  0  0  0  0
    0.3658    2.1046    6.1533 H   0  0  0  0  0  0
    1.9728    2.7430    5.8483 H   0  0  0  0  0  0
    1.4907    3.0584    3.4793 H   0  0  0  0  0  0
   -0.1649    4.8886    3.5821 H   0  0  0  0  0  0
    0.8867    4.9305    4.9919 H   0  0  0  0  0  0
   -0.7530    4.3030    5.1363 H   0  0  0  0  0  0
   -1.6151    1.6359    5.1198 H   0  0  0  0  0  0
   -3.2886    0.3327    3.8520 H   0  0  0  0  0  0
   -3.0834    0.0833    1.3930 H   0  0  0  0  0  0
   -2.1522    1.0463   -0.6870 H   0  0  0  0  0  0
   -0.6846    1.9988   -0.6967 H   0  0  0  0  0  0
   -0.7430   -0.8649   -0.0549 H   0  0  0  0  0  0
    1.4728    0.7179   -1.1639 H   0  0  0  0  0  0
    1.2501    0.4142    0.5364 H   0  0  0  0  0  0
    2.0910   -2.5689   -2.0700 H   0  0  0  0  0  0
    3.4837   -3.4248    0.6375 H   0  0  0  0  0  0
    3.5693   -3.2844   -1.0787 H   0  0  0  0  0  0
    5.6590   -4.9025   -0.7665 H   0  0  0  0  0  0
    7.0988   -3.9214   -1.0378 H   0  0  0  0  0  0
    5.7037   -3.7480   -2.0913 H   0  0  0  0  0  0
    7.1266   -2.6041    1.2050 H   0  0  0  0  0  0
    5.6217   -2.1096    1.8978 H   0  0  0  0  0  0
    4.9676   -4.6208    1.9774 H   0  0  0  0  0  0
    6.5789   -4.9814    1.4316 H   0  0  0  0  0  0
    6.5300   -5.2781    3.8103 H   0  0  0  0  0  0
    7.5337   -3.8849    3.4907 H   0  0  0  0  0  0
    5.7322   -2.3719    4.0894 H   0  0  0  0  0  0
    4.5761   -3.6969    4.1645 H   0  0  0  0  0  0
    5.9124   -4.6052    6.1263 H   0  0  0  0  0  0
    6.8311   -3.1264    6.1478 H   0  0  0  0  0  0
    3.7540   -3.2530    6.4226 H   0  0  0  0  0  0
    4.8316   -3.3251    7.7620 H   0  0  0  0  0  0
    5.3266    0.0189    8.2828 H   0  0  0  0  0  0
    6.6741   -0.6505    7.3455 H   0  0  0  0  0  0
    5.9361   -1.5924    8.6409 H   0  0  0  0  0  0
    3.1528   -2.1128    4.7553 H   0  0  0  0  0  0
    3.8459    1.5689    2.6328 H   0  0  0  0  0  0
    4.6184    3.5189    4.0850 H   0  0  0  0  0  0
    6.2389    2.8395    4.2869 H   0  0  0  0  0  0
    5.2490    3.2147    5.7047 H   0  0  0  0  0  0
    4.2365   -0.1017    1.2217 H   0  0  0  0  0  0
    0.4931    2.4935    1.4523 H   0  0  0  0  0  0
   -0.5818   -0.3169   -1.5923 H   0  0  0  0  0  0
    5.4101    0.9854    6.4751 H   0  0  0  0  0  0
  1  2  1  0  0  0
  1 40  1  0  0  0
  1 41  1  0  0  0
  1 42  1  0  0  0
  2  3  1  0  0  0
  2  4  1  0  0  0
  2 43  1  0  0  0
  3 44  1  0  0  0
  3 45  1  0  0  0
  3 46  1  0  0  0
  4 36  1  0  0  0
  4  5  2  0  0  0
  5  6  1  0  0  0
  5 47  1  0  0  0
  6  7  2  0  0  0
  6 48  1  0  0  0
  7  8  1  0  0  0
  7 49  1  0  0  0
  8  9  1  0  0  0
  8 36  2  0  0  0
  9 10  1  0  0  0
  9 50  1  0  0  0
  9 51  1  0  0  0
 10 11  1  0  0  0
 10 52  1  0  0  0
 10 83  1  0  0  0
 11 12  1  0  0  0
 11 53  1  0  0  0
 11 54  1  0  0  0
 12 37  1  0  0  0
 12 13  1  0  0  0
 12 14  1  0  0  0
 13 55  1  0  0  0
 14 38  1  0  0  0
 14 35  1  0  0  0
 14 15  1  0  0  0
 15 16  1  0  0  0
 15 56  1  0  0  0
 15 57  1  0  0  0
 16 39  1  0  0  0
 16 17  1  0  0  0
 16 18  1  0  0  0
 17 58  1  0  0  0
 17 59  1  0  0  0
 17 60  1  0  0  0
 18 19  1  0  0  0
 18 61  1  0  0  0
 18 62  1  0  0  0
 19 20  1  0  0  0
 19 63  1  0  0  0
 19 64  1  0  0  0
 20 21  1  0  0  0
 20 65  1  0  0  0
 20 66  1  0  0  0
 21 22  1  0  0  0
 21 67  1  0  0  0
 21 68  1  0  0  0
 22 23  1  0  0  0
 22 69  1  0  0  0
 22 70  1  0  0  0
 23 24  1  0  0  0
 23 71  1  0  0  0
 23 72  1  0  0  0
 24 25  1  0  0  0
 24 26  1  0  0  0
 25 73  1  0  0  0
 25 74  1  0  0  0
 25 75  1  0  0  0
 26 32  1  0  0  0
 26 27  2  0  0  0
 27 28  1  0  0  0
 27 76  1  0  0  0
 28 29  2  0  0  0
 28 33  1  0  0  0
 29 30  1  0  0  0
 29 77  1  0  0  0
 30 31  1  0  0  0
 30 32  2  0  0  0
 31 78  1  0  0  0
 31 79  1  0  0  0
 31 80  1  0  0  0
 32 84  1  0  0  0
 33 34  2  0  0  0
 33 35  1  0  0  0
 35 81  1  0  0  0
 36 82  1  0  0  0
M  CHG  2  10   1  32   1
M  END
> <s_m_source_file>
BACE_44.smi

> <i_m_source_file_index>
1

> <i_lp_mmshare_version>
42013

> <i_f3d_flags>
0

> <s_epik_input>
W0NIM11bQ0hdKFtDSDNdKWMxW2NIXVtjSF1bY0hdYyhbY0hdMSlbQ0gyXVtOSF1bQ0gyXVtDQEBIXShbT0hdKVtDQEBIXShbTkhdQyg9TyljKFtjSF1jMjMpW2NIXWMobjMpW0NIM10pW0NIMl1bQ0BIXShbQ0gzXSlbQ0gyXVtDSDJdW0NIMl1bQ0gyXVtDSDJdW0NIMl1OMltDSDNd

> <s_epik_cmdline>
J2VwaWtfcHl0aG9uJywgJy1waCcsICc3LjAnLCAnLXRuJywgJzgnLCAnLW1hJywgJzIwMCcsICctaW1hZScsICc8aW5maWxlLm1hZT4nLCAnLW9tYWUnLCAnPG91dGZpbGUubWFlPic=

> <r_lp_tautomer_probability>
0.999994

> <r_epik_Ionization_Penalty>
1.91233

> <r_epik_Ionization_Penalty_Charging>
1.91232

> <r_epik_Ionization_Penalty_Neutral>
8.60129e-06

> <r_epik_State_Penalty>
1.96796

> <r_epik_Charging_Adjusted_Penalty>
3.88028

> <i_epik_Tot_Q>
2

> <i_epik_Tot_abs_Q>
2

> <s_lp_Force_Field>
OPLS_2005

> <r_lp_Energy>
35.8008

> <b_lp_Chiralities_Consistent>
1

> <s_lp_Variant>
BACE_44.smi:1-2

$$$$
BACE_44.smi:1
                    3D
 Structure written by MMmdl.
 82 84  0  0  1  0            999 V2000
   -4.1098    2.5329    3.9059 C   0  0  0  0  0  0
   -4.4958    1.2504    3.1530 C   0  0  0  0  0  0
   -3.9402   -0.0034    3.8473 C   0  0  0  0  0  0
   -4.0818    1.3153    1.6882 C   0  0  0  0  0  0
   -5.0654    1.3308    0.6757 C   0  0  0  0  0  0
   -4.6889    1.3871   -0.6801 C   0  0  0  0  0  0
   -3.3268    1.4286   -1.0332 C   0  0  0  0  0  0
   -2.3372    1.4179   -0.0296 C   0  0  0  0  0  0
   -0.8706    1.4521   -0.4065 C   0  0  0  0  0  0
   -0.3045    0.1119   -0.4987 N   0  0  0  0  0  0
    1.1194    0.1094   -0.8190 C   0  0  0  0  0  0
    1.6603   -1.3279   -0.9399 C   0  0  1  0  0  0
    1.3271   -1.8113   -2.2277 O   0  0  0  0  0  0
    3.1977   -1.4022   -0.7392 C   0  0  2  0  0  0
    4.0154   -0.7462   -1.8806 C   0  0  0  0  0  0
    5.5168   -0.5248   -1.5553 C   0  0  2  0  0  0
    5.8051    0.9627   -1.2959 C   0  0  0  0  0  0
    6.4494   -1.0854   -2.6540 C   0  0  0  0  0  0
    6.5554   -2.6174   -2.5985 C   0  0  0  0  0  0
    7.3860   -3.2462   -3.7236 C   0  0  0  0  0  0
    7.3683   -4.7912   -3.7227 C   0  0  0  0  0  0
    8.3855   -5.4784   -2.7852 C   0  0  0  0  0  0
    7.9221   -5.7499   -1.3363 C   0  0  0  0  0  0
    6.8681   -6.7658   -1.2295 N   0  0  0  0  0  0
    7.2350   -8.1631   -1.4454 C   0  0  0  0  0  0
    5.7165   -6.4989   -0.4489 C   0  0  0  0  0  0
    5.1879   -5.1920   -0.3590 C   0  0  0  0  0  0
    4.0394   -4.9385    0.4206 C   0  0  0  0  0  0
    3.4565   -6.0207    1.1106 C   0  0  0  0  0  0
    4.0348   -7.2980    0.9612 C   0  0  0  0  0  0
    3.4480   -8.5044    1.6637 C   0  0  0  0  0  0
    5.1270   -7.5332    0.2009 N   0  0  0  0  0  0
    3.4796   -3.5489    0.5360 C   0  0  0  0  0  0
    2.8965   -3.1771    1.5543 O   0  0  0  0  0  0
    3.6270   -2.7888   -0.5625 N   0  0  0  0  0  0
   -2.7168    1.3605    1.3273 C   0  0  0  0  0  0
    1.1674   -1.9530   -0.1938 H   0  0  0  0  0  0
    3.4341   -0.8717    0.1850 H   0  0  0  0  0  0
    5.7601   -1.0474   -0.6291 H   0  0  0  0  0  0
   -4.5586    3.4106    3.4399 H   0  0  0  0  0  0
   -3.0295    2.6802    3.9225 H   0  0  0  0  0  0
   -4.4537    2.4984    4.9400 H   0  0  0  0  0  0
   -5.5836    1.1755    3.1851 H   0  0  0  0  0  0
   -4.2580   -0.9098    3.3313 H   0  0  0  0  0  0
   -4.2945   -0.0699    4.8762 H   0  0  0  0  0  0
   -2.8502   -0.0006    3.8756 H   0  0  0  0  0  0
   -6.1140    1.2978    0.9329 H   0  0  0  0  0  0
   -5.4460    1.3969   -1.4503 H   0  0  0  0  0  0
   -3.0440    1.4675   -2.0750 H   0  0  0  0  0  0
   -0.7590    1.9755   -1.3570 H   0  0  0  0  0  0
   -0.3313    2.0388    0.3382 H   0  0  0  0  0  0
   -0.8017   -0.4125   -1.2118 H   0  0  0  0  0  0
    1.3081    0.6676   -1.7370 H   0  0  0  0  0  0
    1.6563    0.6312   -0.0260 H   0  0  0  0  0  0
    1.6002   -2.7140   -2.2867 H   0  0  0  0  0  0
    3.9138   -1.3544   -2.7802 H   0  0  0  0  0  0
    3.5664    0.2103   -2.1487 H   0  0  0  0  0  0
    5.6281    1.5638   -2.1884 H   0  0  0  0  0  0
    6.8408    1.1163   -0.9918 H   0  0  0  0  0  0
    5.1698    1.3516   -0.4995 H   0  0  0  0  0  0
    6.1051   -0.7604   -3.6369 H   0  0  0  0  0  0
    7.4515   -0.6723   -2.5325 H   0  0  0  0  0  0
    6.9936   -2.8864   -1.6394 H   0  0  0  0  0  0
    5.5539   -3.0441   -2.6358 H   0  0  0  0  0  0
    6.9746   -2.9049   -4.6743 H   0  0  0  0  0  0
    8.4114   -2.8765   -3.6930 H   0  0  0  0  0  0
    6.3607   -5.1705   -3.5498 H   0  0  0  0  0  0
    7.6182   -5.1041   -4.7371 H   0  0  0  0  0  0
    8.6808   -6.4243   -3.2388 H   0  0  0  0  0  0
    9.3007   -4.8864   -2.7584 H   0  0  0  0  0  0
    8.7773   -6.1355   -0.7804 H   0  0  0  0  0  0
    7.6751   -4.8205   -0.8308 H   0  0  0  0  0  0
    6.4138   -8.7078   -1.9120 H   0  0  0  0  0  0
    7.4800   -8.6477   -0.4996 H   0  0  0  0  0  0
    8.1040   -8.2520   -2.0962 H   0  0  0  0  0  0
    5.6491   -4.3833   -0.8887 H   0  0  0  0  0  0
    2.5830   -5.8790    1.7308 H   0  0  0  0  0  0
    2.5524   -8.2389    2.2262 H   0  0  0  0  0  0
    4.1736   -8.9277    2.3587 H   0  0  0  0  0  0
    3.1782   -9.2721    0.9379 H   0  0  0  0  0  0
    4.1013   -3.2100   -1.3479 H   0  0  0  0  0  0
   -1.9544    1.3484    2.0923 H   0  0  0  0  0  0
  1  2  1  0  0  0
  1 40  1  0  0  0
  1 41  1  0  0  0
  1 42  1  0  0  0
  2  3  1  0  0  0
  2  4  1  0  0  0
  2 43  1  0  0  0
  3 44  1  0  0  0
  3 45  1  0  0  0
  3 46  1  0  0  0
  4 36  1  0  0  0
  4  5  2  0  0  0
  5  6  1  0  0  0
  5 47  1  0  0  0
  6  7  2  0  0  0
  6 48  1  0  0  0
  7  8  1  0  0  0
  7 49  1  0  0  0
  8  9  1  0  0  0
  8 36  2  0  0  0
  9 10  1  0  0  0
  9 50  1  0  0  0
  9 51  1  0  0  0
 10 11  1  0  0  0
 10 52  1  0  0  0
 11 12  1  0  0  0
 11 53  1  0  0  0
 11 54  1  0  0  0
 12 37  1  0  0  0
 12 13  1  0  0  0
 12 14  1  0  0  0
 13 55  1  0  0  0
 14 38  1  0  0  0
 14 35  1  0  0  0
 14 15  1  0  0  0
 15 16  1  0  0  0
 15 56  1  0  0  0
 15 57  1  0  0  0
 16 39  1  0  0  0
 16 17  1  0  0  0
 16 18  1  0  0  0
 17 58  1  0  0  0
 17 59  1  0  0  0
 17 60  1  0  0  0
 18 19  1  0  0  0
 18 61  1  0  0  0
 18 62  1  0  0  0
 19 20  1  0  0  0
 19 63  1  0  0  0
 19 64  1  0  0  0
 20 21  1  0  0  0
 20 65  1  0  0  0
 20 66  1  0  0  0
 21 22  1  0  0  0
 21 67  1  0  0  0
 21 68  1  0  0  0
 22 23  1  0  0  0
 22 69  1  0  0  0
 22 70  1  0  0  0
 23 24  1  0  0  0
 23 71  1  0  0  0
 23 72  1  0  0  0
 24 25  1  0  0  0
 24 26  1  0  0  0
 25 73  1  0  0  0
 25 74  1  0  0  0
 25 75  1  0  0  0
 26 32  1  0  0  0
 26 27  2  0  0  0
 27 28  1  0  0  0
 27 76  1  0  0  0
 28 29  2  0  0  0
 28 33  1  0  0  0
 29 30  1  0  0  0
 29 77  1  0  0  0
 30 31  1  0  0  0
 30 32  2  0  0  0
 31 78  1  0  0  0
 31 79  1  0  0  0
 31 80  1  0  0  0
 33 34  2  0  0  0
 33 35  1  0  0  0
 35 81  1  0  0  0
 36 82  1  0  0  0
M  END
> <s_m_source_file>
BACE_44.smi

> <i_m_source_file_index>
1

> <i_lp_mmshare_version>
42013

> <i_f3d_flags>
0

> <s_epik_input>
W0NIM11bQ0hdKFtDSDNdKWMxW2NIXVtjSF1bY0hdYyhbY0hdMSlbQ0gyXVtOSF1bQ0gyXVtDQEBIXShbT0hdKVtDQEBIXShbTkhdQyg9TyljKFtjSF1jMjMpW2NIXWMobjMpW0NIM10pW0NIMl1bQ0BIXShbQ0gzXSlbQ0gyXVtDSDJdW0NIMl1bQ0gyXVtDSDJdW0NIMl1OMltDSDNd

> <s_epik_cmdline>
J2VwaWtfcHl0aG9uJywgJy1waCcsICc3LjAnLCAnLXRuJywgJzgnLCAnLW1hJywgJzIwMCcsICctaW1hZScsICc8aW5maWxlLm1hZT4nLCAnLW9tYWUnLCAnPG91dGZpbGUubWFlPic=

> <r_lp_tautomer_probability>
1

> <r_epik_Ionization_Penalty>
2.14084

> <r_epik_Ionization_Penalty_Charging>
0

> <r_epik_Ionization_Penalty_Neutral>
2.14084

> <r_epik_State_Penalty>
2.31951

> <r_epik_Charging_Adjusted_Penalty>
2.31951

> <i_epik_Tot_Q>
0

> <i_epik_Tot_abs_Q>
0

> <s_lp_Force_Field>
OPLS_2005

> <r_lp_Energy>
37.8599

> <b_lp_Chiralities_Consistent>
1

> <s_lp_Variant>
BACE_44.smi:1-3

$$$$
