BACE_45.smi:1
                    3D
 Structure written by MMmdl.
 81 83  0  0  1  0            999 V2000
   -5.0081    0.6066    0.5203 C   0  0  0  0  0  0
   -4.9004    1.9366    1.2833 C   0  0  0  0  0  0
   -5.0626    3.1432    0.3454 C   0  0  0  0  0  0
   -3.6082    2.0173    2.0862 C   0  0  0  0  0  0
   -3.6539    2.1016    3.4944 C   0  0  0  0  0  0
   -2.4620    2.1658    4.2416 C   0  0  0  0  0  0
   -1.2160    2.1432    3.5868 C   0  0  0  0  0  0
   -1.1602    2.0603    2.1803 C   0  0  0  0  0  0
    0.1758    2.0133    1.4686 C   0  0  0  0  0  0
    0.5473    0.6148    1.1878 N   0  3  0  0  0  0
    1.8139    0.4564    0.4457 C   0  0  0  0  0  0
    2.0818   -1.0284    0.1327 C   0  0  1  0  0  0
    1.0823   -1.4195   -0.7840 O   0  0  0  0  0  0
    3.5041   -1.2787   -0.4440 C   0  0  2  0  0  0
    3.8438   -0.6857   -1.8404 C   0  0  0  0  0  0
    3.1674   -1.2944   -3.0655 C   0  0  0  0  0  0
    3.7822   -2.5842   -3.5854 C   0  0  0  0  0  0
    2.1932   -0.6244   -3.7179 C   0  0  0  0  0  0
    1.5271   -1.0089   -5.0315 C   0  0  0  0  0  0
    0.0132   -1.2367   -4.8977 C   0  0  0  0  0  0
   -0.3321   -2.4391   -4.0095 C   0  0  0  0  0  0
   -1.8394   -2.7306   -3.9275 C   0  0  0  0  0  0
   -2.2467   -3.6070   -2.7265 C   0  0  0  0  0  0
   -1.7526   -5.0692   -2.7648 C   0  0  0  0  0  0
   -0.3136   -5.2116   -2.5680 N   0  0  0  0  0  0
    0.2794   -4.8643   -1.3461 C   0  0  0  0  0  0
    1.6498   -4.5310   -1.3335 C   0  0  0  0  0  0
    2.2510   -4.1701   -0.1099 C   0  0  0  0  0  0
    1.4662   -4.1967    1.0618 C   0  0  0  0  0  0
    0.1042   -4.5406    0.9483 C   0  0  0  0  0  0
   -0.7946   -4.5611    2.1666 C   0  0  0  0  0  0
   -0.4804   -4.8620   -0.2255 N   0  0  0  0  0  0
    3.7101   -3.8474   -0.0385 C   0  0  0  0  0  0
    4.5058   -4.7626    0.1572 O   0  0  0  0  0  0
    4.1442   -2.5765   -0.1741 N   0  0  0  0  0  0
   -2.3556    2.0008    1.4346 C   0  0  0  0  0  0
    1.9648   -1.5833    1.0625 H   0  0  0  0  0  0
    4.1263   -0.6725    0.2155 H   0  0  0  0  0  0
   -4.9443   -0.2416    1.2026 H   0  0  0  0  0  0
   -4.2138    0.4993   -0.2189 H   0  0  0  0  0  0
   -5.9598    0.5332   -0.0066 H   0  0  0  0  0  0
   -5.7310    1.9681    1.9898 H   0  0  0  0  0  0
   -5.0345    4.0794    0.9040 H   0  0  0  0  0  0
   -6.0164    3.1036   -0.1815 H   0  0  0  0  0  0
   -4.2736    3.1798   -0.4061 H   0  0  0  0  0  0
   -4.6033    2.1150    4.0099 H   0  0  0  0  0  0
   -2.5042    2.2290    5.3193 H   0  0  0  0  0  0
   -0.3064    2.1867    4.1681 H   0  0  0  0  0  0
    0.1121    2.5759    0.5360 H   0  0  0  0  0  0
    0.9449    2.4857    2.0814 H   0  0  0  0  0  0
    0.6178    0.1162    2.0632 H   0  0  0  0  0  0
    1.7779    1.0456   -0.4720 H   0  0  0  0  0  0
    2.6178    0.8662    1.0583 H   0  0  0  0  0  0
    1.2659   -1.0230   -1.6225 H   0  0  0  0  0  0
    3.6206    0.3816   -1.8230 H   0  0  0  0  0  0
    4.9216   -0.7376   -2.0015 H   0  0  0  0  0  0
    4.1813   -3.1924   -2.7775 H   0  0  0  0  0  0
    4.6059   -2.3566   -4.2621 H   0  0  0  0  0  0
    3.0570   -3.1997   -4.1162 H   0  0  0  0  0  0
    1.8483    0.3123   -3.3044 H   0  0  0  0  0  0
    1.7014   -0.1925   -5.7327 H   0  0  0  0  0  0
    1.9938   -1.8835   -5.4811 H   0  0  0  0  0  0
   -0.4601   -0.3364   -4.5036 H   0  0  0  0  0  0
   -0.4090   -1.3936   -5.8910 H   0  0  0  0  0  0
    0.1905   -3.3185   -4.3857 H   0  0  0  0  0  0
    0.0486   -2.2600   -3.0066 H   0  0  0  0  0  0
   -2.3742   -1.7842   -3.8402 H   0  0  0  0  0  0
   -2.1809   -3.1837   -4.8588 H   0  0  0  0  0  0
   -1.9432   -3.1228   -1.7980 H   0  0  0  0  0  0
   -3.3361   -3.6314   -2.6927 H   0  0  0  0  0  0
   -2.2715   -5.6546   -2.0048 H   0  0  0  0  0  0
   -2.0141   -5.5204   -3.7221 H   0  0  0  0  0  0
    0.2663   -5.1813   -3.3941 H   0  0  0  0  0  0
    2.2269   -4.5543   -2.2455 H   0  0  0  0  0  0
    1.8968   -3.9534    2.0224 H   0  0  0  0  0  0
   -0.2089   -4.6187    3.0846 H   0  0  0  0  0  0
   -1.4637   -5.4218    2.1387 H   0  0  0  0  0  0
   -1.4000   -3.6552    2.2026 H   0  0  0  0  0  0
    5.1477   -2.4994   -0.0910 H   0  0  0  0  0  0
   -2.3097    1.9334    0.3573 H   0  0  0  0  0  0
   -0.1908    0.1945    0.6403 H   0  0  0  0  0  0
  1  2  1  0  0  0
  1 39  1  0  0  0
  1 40  1  0  0  0
  1 41  1  0  0  0
  2  3  1  0  0  0
  2  4  1  0  0  0
  2 42  1  0  0  0
  3 43  1  0  0  0
  3 44  1  0  0  0
  3 45  1  0  0  0
  4 36  1  0  0  0
  4  5  2  0  0  0
  5  6  1  0  0  0
  5 46  1  0  0  0
  6  7  2  0  0  0
  6 47  1  0  0  0
  7  8  1  0  0  0
  7 48  1  0  0  0
  8  9  1  0  0  0
  8 36  2  0  0  0
  9 10  1  0  0  0
  9 49  1  0  0  0
  9 50  1  0  0  0
 10 11  1  0  0  0
 10 51  1  0  0  0
 10 81  1  0  0  0
 11 12  1  0  0  0
 11 52  1  0  0  0
 11 53  1  0  0  0
 12 37  1  0  0  0
 12 13  1  0  0  0
 12 14  1  0  0  0
 13 54  1  0  0  0
 14 38  1  0  0  0
 14 35  1  0  0  0
 14 15  1  0  0  0
 15 16  1  0  0  0
 15 55  1  0  0  0
 15 56  1  0  0  0
 16 17  1  0  0  0
 16 18  2  0  0  0
 17 57  1  0  0  0
 17 58  1  0  0  0
 17 59  1  0  0  0
 18 19  1  0  0  0
 18 60  1  0  0  0
 19 20  1  0  0  0
 19 61  1  0  0  0
 19 62  1  0  0  0
 20 21  1  0  0  0
 20 63  1  0  0  0
 20 64  1  0  0  0
 21 22  1  0  0  0
 21 65  1  0  0  0
 21 66  1  0  0  0
 22 23  1  0  0  0
 22 67  1  0  0  0
 22 68  1  0  0  0
 23 24  1  0  0  0
 23 69  1  0  0  0
 23 70  1  0  0  0
 24 25  1  0  0  0
 24 71  1  0  0  0
 24 72  1  0  0  0
 25 26  1  0  0  0
 25 73  1  0  0  0
 26 32  1  0  0  0
 26 27  2  0  0  0
 27 28  1  0  0  0
 27 74  1  0  0  0
 28 29  2  0  0  0
 28 33  1  0  0  0
 29 30  1  0  0  0
 29 75  1  0  0  0
 30 31  1  0  0  0
 30 32  2  0  0  0
 31 76  1  0  0  0
 31 77  1  0  0  0
 31 78  1  0  0  0
 33 34  2  0  0  0
 33 35  1  0  0  0
 35 79  1  0  0  0
 36 80  1  0  0  0
M  CHG  1  10   1
M  END
> <s_m_source_file>
BACE_45.smi

> <i_m_source_file_index>
1

> <i_lp_mmshare_version>
42013

> <i_f3d_flags>
0

> <s_epik_input>
W0NIM11bQ0hdKFtDSDNdKWMxW2NIXVtjSF1bY0hdYyhbY0hdMSlbQ0gyXVtOSF1bQ0gyXVtDQEBIXShbT0hdKVtDQEBIXShbTkhdQyg9TyljKFtjSF1jMjMpW2NIXWMobjMpW0NIM10pW0NIMl0vQyhbQ0gzXSk9W0NIXS9bQ0gyXVtDSDJdW0NIMl1bQ0gyXVtDSDJdW0NIMl1bTkhdMg==

> <s_epik_cmdline>
J2VwaWtfcHl0aG9uJywgJy1waCcsICc3LjAnLCAnLXRuJywgJzgnLCAnLW1hJywgJzIwMCcsICctaW1hZScsICc8aW5maWxlLm1hZT4nLCAnLW9tYWUnLCAnPG91dGZpbGUubWFlPic=

> <r_lp_tautomer_probability>
1

> <r_epik_Ionization_Penalty>
0.0293671

> <r_epik_Ionization_Penalty_Charging>
0.0186638

> <r_epik_Ionization_Penalty_Neutral>
0.0107034

> <r_epik_State_Penalty>
0.0225563

> <r_epik_Charging_Adjusted_Penalty>
0.0412201

> <i_epik_Tot_Q>
1

> <i_epik_Tot_abs_Q>
1

> <s_lp_Force_Field>
OPLS_2005

> <r_lp_Energy>
36.8474

> <b_lp_Chiralities_Consistent>
1

> <s_lp_Variant>
BACE_45.smi:1-1

$$$$
BACE_45.smi:1
                    3D
 Structure written by MMmdl.
 80 82  0  0  1  0            999 V2000
   -5.9184   -0.2322    2.3918 C   0  0  0  0  0  0
   -4.8896    0.7195    3.0214 C   0  0  0  0  0  0
   -5.4936    1.5197    4.1862 C   0  0  0  0  0  0
   -4.2577    1.6301    1.9756 C   0  0  0  0  0  0
   -5.0349    2.5890    1.2896 C   0  0  0  0  0  0
   -4.4430    3.4209    0.3204 C   0  0  0  0  0  0
   -3.0723    3.2962    0.0251 C   0  0  0  0  0  0
   -2.2869    2.3375    0.6975 C   0  0  0  0  0  0
   -0.8094    2.2067    0.3713 C   0  0  0  0  0  0
   -0.4017    0.8195    0.1739 N   0  0  0  0  0  0
    0.9921    0.6666   -0.2328 C   0  0  0  0  0  0
    1.3862   -0.8232   -0.2887 C   0  0  1  0  0  0
    0.8158   -1.3386   -1.4729 O   0  0  0  0  0  0
    2.9244   -1.0399   -0.2908 C   0  0  2  0  0  0
    3.6978   -0.5379   -1.5423 C   0  0  0  0  0  0
    3.7283   -1.4419   -2.7723 C   0  0  0  0  0  0
    4.6647   -2.6377   -2.6940 C   0  0  0  0  0  0
    3.0070   -1.1399   -3.8721 C   0  0  0  0  0  0
    2.9512   -1.9179   -5.1788 C   0  0  0  0  0  0
    1.5125   -2.1756   -5.6564 C   0  0  0  0  0  0
    0.7297   -3.0987   -4.7127 C   0  0  0  0  0  0
   -0.7018   -3.4008   -5.1875 C   0  0  0  0  0  0
   -1.6182   -3.9821   -4.0910 C   0  0  0  0  0  0
   -1.3234   -5.4387   -3.6723 C   0  0  0  0  0  0
   -0.0522   -5.6079   -2.9773 N   0  0  0  0  0  0
    0.1517   -4.9961   -1.7329 C   0  0  0  0  0  0
    1.4618   -4.6108   -1.3812 C   0  0  0  0  0  0
    1.6770   -3.9799   -0.1384 C   0  0  0  0  0  0
    0.5774   -3.8178    0.7303 C   0  0  0  0  0  0
   -0.6961   -4.2264    0.2868 C   0  0  0  0  0  0
   -1.9163   -4.0252    1.1602 C   0  0  0  0  0  0
   -0.9104   -4.7986   -0.9176 N   0  0  0  0  0  0
    3.0575   -3.5863    0.2880 C   0  0  0  0  0  0
    3.8212   -4.4660    0.6791 O   0  0  0  0  0  0
    3.4535   -2.2946    0.2741 N   0  0  0  0  0  0
   -2.8825    1.5141    1.6784 C   0  0  0  0  0  0
    0.9562   -1.3011    0.5879 H   0  0  0  0  0  0
    3.2587   -0.3558    0.4899 H   0  0  0  0  0  0
   -5.4624   -0.8378    1.6081 H   0  0  0  0  0  0
   -6.7527    0.3125    1.9489 H   0  0  0  0  0  0
   -6.3280   -0.9145    3.1371 H   0  0  0  0  0  0
   -4.0969    0.0986    3.4411 H   0  0  0  0  0  0
   -4.7415    2.1543    4.6557 H   0  0  0  0  0  0
   -5.8877    0.8538    4.9544 H   0  0  0  0  0  0
   -6.3115    2.1602    3.8559 H   0  0  0  0  0  0
   -6.0889    2.6907    1.5028 H   0  0  0  0  0  0
   -5.0423    4.1540   -0.1992 H   0  0  0  0  0  0
   -2.6278    3.9370   -0.7222 H   0  0  0  0  0  0
   -0.5917    2.7875   -0.5260 H   0  0  0  0  0  0
   -0.2357    2.6558    1.1827 H   0  0  0  0  0  0
   -0.5561    0.2988    1.0311 H   0  0  0  0  0  0
    1.1681    1.1550   -1.1922 H   0  0  0  0  0  0
    1.6247    1.1771    0.4942 H   0  0  0  0  0  0
    1.1914   -0.8841   -2.2109 H   0  0  0  0  0  0
    3.3045    0.4361   -1.8339 H   0  0  0  0  0  0
    4.7333   -0.3405   -1.2622 H   0  0  0  0  0  0
    5.4677   -2.4574   -1.9790 H   0  0  0  0  0  0
    5.1372   -2.8424   -3.6539 H   0  0  0  0  0  0
    4.1272   -3.5306   -2.3835 H   0  0  0  0  0  0
    2.3965   -0.2485   -3.8566 H   0  0  0  0  0  0
    3.4797   -1.3347   -5.9333 H   0  0  0  0  0  0
    3.4762   -2.8687   -5.0996 H   0  0  0  0  0  0
    0.9870   -1.2261   -5.7674 H   0  0  0  0  0  0
    1.5439   -2.6247   -6.6497 H   0  0  0  0  0  0
    1.2850   -4.0286   -4.5973 H   0  0  0  0  0  0
    0.6829   -2.6425   -3.7263 H   0  0  0  0  0  0
   -1.1534   -2.4707   -5.5349 H   0  0  0  0  0  0
   -0.6780   -4.0646   -6.0524 H   0  0  0  0  0  0
   -1.6178   -3.3249   -3.2207 H   0  0  0  0  0  0
   -2.6405   -3.9545   -4.4687 H   0  0  0  0  0  0
   -2.1273   -5.8115   -3.0366 H   0  0  0  0  0  0
   -1.3162   -6.0783   -4.5548 H   0  0  0  0  0  0
    0.7626   -5.7178   -3.5633 H   0  0  0  0  0  0
    2.2830   -4.7912   -2.0586 H   0  0  0  0  0  0
    0.7038   -3.3733    1.7069 H   0  0  0  0  0  0
   -1.6522   -4.0955    2.2157 H   0  0  0  0  0  0
   -2.6778   -4.7776    0.9515 H   0  0  0  0  0  0
   -2.3470   -3.0401    0.9790 H   0  0  0  0  0  0
    4.3800   -2.1740    0.6571 H   0  0  0  0  0  0
   -2.2813    0.7841    2.2004 H   0  0  0  0  0  0
  1  2  1  0  0  0
  1 39  1  0  0  0
  1 40  1  0  0  0
  1 41  1  0  0  0
  2  3  1  0  0  0
  2  4  1  0  0  0
  2 42  1  0  0  0
  3 43  1  0  0  0
  3 44  1  0  0  0
  3 45  1  0  0  0
  4 36  1  0  0  0
  4  5  2  0  0  0
  5  6  1  0  0  0
  5 46  1  0  0  0
  6  7  2  0  0  0
  6 47  1  0  0  0
  7  8  1  0  0  0
  7 48  1  0  0  0
  8  9  1  0  0  0
  8 36  2  0  0  0
  9 10  1  0  0  0
  9 49  1  0  0  0
  9 50  1  0  0  0
 10 11  1  0  0  0
 10 51  1  0  0  0
 11 12  1  0  0  0
 11 52  1  0  0  0
 11 53  1  0  0  0
 12 37  1  0  0  0
 12 13  1  0  0  0
 12 14  1  0  0  0
 13 54  1  0  0  0
 14 38  1  0  0  0
 14 35  1  0  0  0
 14 15  1  0  0  0
 15 16  1  0  0  0
 15 55  1  0  0  0
 15 56  1  0  0  0
 16 17  1  0  0  0
 16 18  2  0  0  0
 17 57  1  0  0  0
 17 58  1  0  0  0
 17 59  1  0  0  0
 18 19  1  0  0  0
 18 60  1  0  0  0
 19 20  1  0  0  0
 19 61  1  0  0  0
 19 62  1  0  0  0
 20 21  1  0  0  0
 20 63  1  0  0  0
 20 64  1  0  0  0
 21 22  1  0  0  0
 21 65  1  0  0  0
 21 66  1  0  0  0
 22 23  1  0  0  0
 22 67  1  0  0  0
 22 68  1  0  0  0
 23 24  1  0  0  0
 23 69  1  0  0  0
 23 70  1  0  0  0
 24 25  1  0  0  0
 24 71  1  0  0  0
 24 72  1  0  0  0
 25 26  1  0  0  0
 25 73  1  0  0  0
 26 32  1  0  0  0
 26 27  2  0  0  0
 27 28  1  0  0  0
 27 74  1  0  0  0
 28 29  2  0  0  0
 28 33  1  0  0  0
 29 30  1  0  0  0
 29 75  1  0  0  0
 30 31  1  0  0  0
 30 32  2  0  0  0
 31 76  1  0  0  0
 31 77  1  0  0  0
 31 78  1  0  0  0
 33 34  2  0  0  0
 33 35  1  0  0  0
 35 79  1  0  0  0
 36 80  1  0  0  0
M  END
> <s_m_source_file>
BACE_45.smi

> <i_m_source_file_index>
1

> <i_lp_mmshare_version>
42013

> <i_f3d_flags>
0

> <s_epik_input>
W0NIM11bQ0hdKFtDSDNdKWMxW2NIXVtjSF1bY0hdYyhbY0hdMSlbQ0gyXVtOSF1bQ0gyXVtDQEBIXShbT0hdKVtDQEBIXShbTkhdQyg9TyljKFtjSF1jMjMpW2NIXWMobjMpW0NIM10pW0NIMl0vQyhbQ0gzXSk9W0NIXS9bQ0gyXVtDSDJdW0NIMl1bQ0gyXVtDSDJdW0NIMl1bTkhdMg==

> <s_epik_cmdline>
J2VwaWtfcHl0aG9uJywgJy1waCcsICc3LjAnLCAnLXRuJywgJzgnLCAnLW1hJywgJzIwMCcsICctaW1hZScsICc8aW5maWxlLm1hZT4nLCAnLW9tYWUnLCAnPG91dGZpbGUubWFlPic=

> <r_lp_tautomer_probability>
1

> <r_epik_Ionization_Penalty>
2.07509

> <r_epik_Ionization_Penalty_Charging>
0

> <r_epik_Ionization_Penalty_Neutral>
2.07509

> <r_epik_State_Penalty>
2.25946

> <r_epik_Charging_Adjusted_Penalty>
2.25946

> <i_epik_Tot_Q>
0

> <i_epik_Tot_abs_Q>
0

> <s_lp_Force_Field>
OPLS_2005

> <r_lp_Energy>
45.1618

> <b_lp_Chiralities_Consistent>
1

> <s_lp_Variant>
BACE_45.smi:1-2

$$$$
BACE_45.smi:1
                    3D
 Structure written by MMmdl.
 82 84  0  0  1  0            999 V2000
   -6.0579    0.6181   -2.4448 C   0  0  0  0  0  0
   -4.9157   -0.3391   -2.0693 C   0  0  0  0  0  0
   -5.4154   -1.7834   -1.9070 C   0  0  0  0  0  0
   -4.1654    0.1379   -0.8319 C   0  0  0  0  0  0
   -4.8237    0.2434    0.4132 C   0  0  0  0  0  0
   -4.1238    0.6840    1.5524 C   0  0  0  0  0  0
   -2.7610    1.0221    1.4557 C   0  0  0  0  0  0
   -2.0945    0.9207    0.2170 C   0  0  0  0  0  0
   -0.6261    1.2775    0.1118 C   0  0  0  0  0  0
    0.2120    0.0888    0.3564 N   0  3  0  0  0  0
    1.6644    0.3480    0.2811 C   0  0  0  0  0  0
    2.4805   -0.9411    0.5330 C   0  0  1  0  0  0
    2.1626   -1.8168   -0.5289 O   0  0  0  0  0  0
    4.0228   -0.7407    0.5679 C   0  0  2  0  0  0
    4.7864   -1.9707    1.1355 C   0  0  0  0  0  0
    5.1889   -2.9963    0.0824 C   0  0  0  0  0  0
    4.2154   -4.1380   -0.1607 C   0  0  0  0  0  0
    6.3478   -2.8641   -0.5920 C   0  0  0  0  0  0
    6.8686   -3.7535   -1.7060 C   0  0  0  0  0  0
    8.1297   -4.5497   -1.3263 C   0  0  0  0  0  0
    9.3906   -3.7007   -1.0671 C   0  0  0  0  0  0
    9.6122   -3.3420    0.4141 C   0  0  0  0  0  0
   10.9509   -2.6291    0.6841 C   0  0  0  0  0  0
   11.0626   -1.2039    0.1124 C   0  0  0  0  0  0
   10.1890   -0.2619    0.8039 N   0  0  0  0  0  0
    8.9527    0.0940    0.2467 C   0  0  0  0  0  0
    7.8753    0.4694    1.0749 C   0  0  0  0  0  0
    6.6296    0.8024    0.4980 C   0  0  0  0  0  0
    6.5106    0.8073   -0.9108 C   0  0  0  0  0  0
    7.6174    0.4262   -1.6970 C   0  0  0  0  0  0
    7.5537    0.3809   -3.2085 C   0  0  0  0  0  0
    8.7779    0.0844   -1.0957 N   0  3  0  0  0  0
    5.4826    1.1859    1.3870 C   0  0  0  0  0  0
    5.6102    2.1263    2.1673 O   0  0  0  0  0  0
    4.3486    0.4582    1.3497 N   0  0  0  0  0  0
   -2.7986    0.4790   -0.9227 C   0  0  0  0  0  0
    2.1509   -1.3900    1.4712 H   0  0  0  0  0  0
    4.3443   -0.5595   -0.4562 H   0  0  0  0  0  0
   -5.6830    1.6285   -2.6107 H   0  0  0  0  0  0
   -6.8166    0.6679   -1.6632 H   0  0  0  0  0  0
   -6.5518    0.2969   -3.3623 H   0  0  0  0  0  0
   -4.2126   -0.3378   -2.9033 H   0  0  0  0  0  0
   -4.5885   -2.4617   -1.6941 H   0  0  0  0  0  0
   -5.9013   -2.1342   -2.8180 H   0  0  0  0  0  0
   -6.1366   -1.8721   -1.0943 H   0  0  0  0  0  0
   -5.8693   -0.0133    0.5003 H   0  0  0  0  0  0
   -4.6338    0.7623    2.5013 H   0  0  0  0  0  0
   -2.2307    1.3578    2.3348 H   0  0  0  0  0  0
   -0.4152    1.6816   -0.8793 H   0  0  0  0  0  0
   -0.3848    2.0569    0.8360 H   0  0  0  0  0  0
   -0.0058   -0.2743    1.2733 H   0  0  0  0  0  0
    1.9143    0.7739   -0.6921 H   0  0  0  0  0  0
    1.8921    1.1066    1.0302 H   0  0  0  0  0  0
    2.6238   -2.6321   -0.3969 H   0  0  0  0  0  0
    5.7136   -1.6461    1.6088 H   0  0  0  0  0  0
    4.2258   -2.4490    1.9391 H   0  0  0  0  0  0
    3.5405   -4.2726    0.6848 H   0  0  0  0  0  0
    4.7479   -5.0792   -0.3001 H   0  0  0  0  0  0
    3.6203   -3.9522   -1.0543 H   0  0  0  0  0  0
    6.9822   -2.0259   -0.3554 H   0  0  0  0  0  0
    6.0941   -4.4474   -2.0304 H   0  0  0  0  0  0
    7.0767   -3.1217   -2.5700 H   0  0  0  0  0  0
    7.9245   -5.2029   -0.4772 H   0  0  0  0  0  0
    8.3465   -5.2194   -2.1594 H   0  0  0  0  0  0
   10.2563   -4.2723   -1.4038 H   0  0  0  0  0  0
    9.3697   -2.8039   -1.6863 H   0  0  0  0  0  0
    8.7882   -2.7432    0.7979 H   0  0  0  0  0  0
    9.5997   -4.2638    0.9967 H   0  0  0  0  0  0
   11.1239   -2.5932    1.7605 H   0  0  0  0  0  0
   11.7607   -3.2364    0.2781 H   0  0  0  0  0  0
   12.0839   -0.8502    0.2551 H   0  0  0  0  0  0
   10.9033   -1.2073   -0.9652 H   0  0  0  0  0  0
   10.2595   -0.2454    1.8113 H   0  0  0  0  0  0
    7.9964    0.4814    2.1490 H   0  0  0  0  0  0
    5.5841    1.0950   -1.3867 H   0  0  0  0  0  0
    6.5645    0.0657   -3.5413 H   0  0  0  0  0  0
    8.2843   -0.3223   -3.6103 H   0  0  0  0  0  0
    7.7599    1.3674   -3.6243 H   0  0  0  0  0  0
    3.6236    0.7601    1.9845 H   0  0  0  0  0  0
   -2.2854    0.4013   -1.8702 H   0  0  0  0  0  0
   -0.0205   -0.6142   -0.3309 H   0  0  0  0  0  0
    9.5650   -0.1871   -1.6852 H   0  0  0  0  0  0
  1  2  1  0  0  0
  1 39  1  0  0  0
  1 40  1  0  0  0
  1 41  1  0  0  0
  2  3  1  0  0  0
  2  4  1  0  0  0
  2 42  1  0  0  0
  3 43  1  0  0  0
  3 44  1  0  0  0
  3 45  1  0  0  0
  4 36  1  0  0  0
  4  5  2  0  0  0
  5  6  1  0  0  0
  5 46  1  0  0  0
  6  7  2  0  0  0
  6 47  1  0  0  0
  7  8  1  0  0  0
  7 48  1  0  0  0
  8  9  1  0  0  0
  8 36  2  0  0  0
  9 10  1  0  0  0
  9 49  1  0  0  0
  9 50  1  0  0  0
 10 11  1  0  0  0
 10 51  1  0  0  0
 10 81  1  0  0  0
 11 12  1  0  0  0
 11 52  1  0  0  0
 11 53  1  0  0  0
 12 37  1  0  0  0
 12 13  1  0  0  0
 12 14  1  0  0  0
 13 54  1  0  0  0
 14 38  1  0  0  0
 14 35  1  0  0  0
 14 15  1  0  0  0
 15 16  1  0  0  0
 15 55  1  0  0  0
 15 56  1  0  0  0
 16 17  1  0  0  0
 16 18  2  0  0  0
 17 57  1  0  0  0
 17 58  1  0  0  0
 17 59  1  0  0  0
 18 19  1  0  0  0
 18 60  1  0  0  0
 19 20  1  0  0  0
 19 61  1  0  0  0
 19 62  1  0  0  0
 20 21  1  0  0  0
 20 63  1  0  0  0
 20 64  1  0  0  0
 21 22  1  0  0  0
 21 65  1  0  0  0
 21 66  1  0  0  0
 22 23  1  0  0  0
 22 67  1  0  0  0
 22 68  1  0  0  0
 23 24  1  0  0  0
 23 69  1  0  0  0
 23 70  1  0  0  0
 24 25  1  0  0  0
 24 71  1  0  0  0
 24 72  1  0  0  0
 25 26  1  0  0  0
 25 73  1  0  0  0
 26 32  1  0  0  0
 26 27  2  0  0  0
 27 28  1  0  0  0
 27 74  1  0  0  0
 28 29  2  0  0  0
 28 33  1  0  0  0
 29 30  1  0  0  0
 29 75  1  0  0  0
 30 31  1  0  0  0
 30 32  2  0  0  0
 31 76  1  0  0  0
 31 77  1  0  0  0
 31 78  1  0  0  0
 32 82  1  0  0  0
 33 34  2  0  0  0
 33 35  1  0  0  0
 35 79  1  0  0  0
 36 80  1  0  0  0
M  CHG  2  10   1  32   1
M  END
> <s_m_source_file>
BACE_45.smi

> <i_m_source_file_index>
1

> <i_lp_mmshare_version>
42013

> <i_f3d_flags>
0

> <s_epik_input>
W0NIM11bQ0hdKFtDSDNdKWMxW2NIXVtjSF1bY0hdYyhbY0hdMSlbQ0gyXVtOSF1bQ0gyXVtDQEBIXShbT0hdKVtDQEBIXShbTkhdQyg9TyljKFtjSF1jMjMpW2NIXWMobjMpW0NIM10pW0NIMl0vQyhbQ0gzXSk9W0NIXS9bQ0gyXVtDSDJdW0NIMl1bQ0gyXVtDSDJdW0NIMl1bTkhdMg==

> <s_epik_cmdline>
J2VwaWtfcHl0aG9uJywgJy1waCcsICc3LjAnLCAnLXRuJywgJzgnLCAnLW1hJywgJzIwMCcsICctaW1hZScsICc8aW5maWxlLm1hZT4nLCAnLW9tYWUnLCAnPG91dGZpbGUubWFlPic=

> <r_lp_tautomer_probability>
0.999994

> <r_epik_Ionization_Penalty>
2.4053

> <r_epik_Ionization_Penalty_Charging>
2.40528

> <r_epik_Ionization_Penalty_Neutral>
1.12405e-05

> <r_epik_State_Penalty>
2.49521

> <r_epik_Charging_Adjusted_Penalty>
4.90049

> <i_epik_Tot_Q>
2

> <i_epik_Tot_abs_Q>
2

> <s_lp_Force_Field>
OPLS_2005

> <r_lp_Energy>
38.0733

> <b_lp_Chiralities_Consistent>
1

> <s_lp_Variant>
BACE_45.smi:1-3

$$$$
