BACE_101.smi:1
                    3D
 Structure written by MMmdl.
 83 86  0  0  1  0            999 V2000
   -5.3047    1.5684    3.1871 C   0  0  0  0  0  0
   -5.3597    0.4499    2.1345 C   0  0  0  0  0  0
   -5.0416   -0.9228    2.7474 C   0  0  0  0  0  0
   -4.4583    0.7508    0.9448 C   0  0  0  0  0  0
   -3.0636    0.9038    1.1051 C   0  0  0  0  0  0
   -2.2789    1.1801   -0.0341 C   0  0  0  0  0  0
   -0.7779    1.3420    0.0834 C   0  0  0  0  0  0
   -0.1072    0.0456   -0.1241 N   0  3  0  0  0  0
    1.3654    0.1075   -0.0412 C   0  0  0  0  0  0
    1.9959   -1.2866   -0.2499 C   0  0  1  0  0  0
    1.7271   -1.6549   -1.5898 O   0  0  0  0  0  0
    3.5357   -1.3316   -0.0325 C   0  0  2  0  0  0
    4.1310   -2.7548   -0.1612 C   0  0  0  0  0  0
    5.6452   -2.7350   -0.2766 C   0  0  0  0  0  0
    6.4548   -2.9550    0.8584 C   0  0  0  0  0  0
    7.8668   -2.8677    0.7587 C   0  0  0  0  0  0
    8.4440   -2.5909   -0.4976 C   0  0  0  0  0  0
    7.6409   -2.3956   -1.6355 C   0  0  0  0  0  0
    6.2416   -2.4630   -1.5242 C   0  0  0  0  0  0
    8.7483   -3.0167    1.8066 O   0  0  0  0  0  0
    8.2736   -3.2915    3.1196 C   0  0  0  0  0  0
    9.3035   -2.7034    4.0948 C   0  0  0  0  0  0
    9.1902   -1.1714    4.1839 C   0  0  0  0  0  0
    8.1253   -0.7157    5.2039 C   0  0  0  0  0  0
    7.5629    0.6137    4.9164 N   0  0  0  0  0  0
    8.3424    1.7242    4.9742 C   0  0  0  0  0  0
    7.7435    3.0841    4.5986 C   0  0  0  0  0  0
    9.5218    1.6925    5.3276 O   0  0  0  0  0  0
    6.1507    0.6776    4.7426 C   0  0  0  0  0  0
    5.5906   -0.0540    3.6667 C   0  0  0  0  0  0
    4.1861   -0.1234    3.5350 C   0  0  0  0  0  0
    3.3869    0.5490    4.4807 C   0  0  0  0  0  0
    4.0270    1.2770    5.5010 C   0  0  0  0  0  0
    3.2218    2.0299    6.5390 C   0  0  0  0  0  0
    5.3683    1.3352    5.6327 N   0  0  0  0  0  0
    3.5443   -0.9363    2.4544 C   0  0  0  0  0  0
    2.6375   -1.7241    2.7212 O   0  0  0  0  0  0
    3.9884   -0.6903    1.2093 N   0  0  0  0  0  0
   -2.7943    1.2982   -1.2774 N   0  0  0  0  0  0
   -4.1285    1.1518   -1.4248 C   0  0  0  0  0  0
   -4.9999    0.8788   -0.3518 C   0  0  0  0  0  0
    1.5086   -2.0118    0.4027 H   0  0  0  0  0  0
    3.9715   -0.7238   -0.8275 H   0  0  0  0  0  0
   -5.5811    2.5290    2.7513 H   0  0  0  0  0  0
   -4.3074    1.6707    3.6160 H   0  0  0  0  0  0
   -5.9960    1.3686    4.0064 H   0  0  0  0  0  0
   -6.3860    0.4077    1.7674 H   0  0  0  0  0  0
   -5.1444   -1.7150    2.0049 H   0  0  0  0  0  0
   -5.7213   -1.1525    3.5686 H   0  0  0  0  0  0
   -4.0249   -0.9631    3.1391 H   0  0  0  0  0  0
   -2.6060    0.8105    2.0794 H   0  0  0  0  0  0
   -0.4238    2.0645   -0.6538 H   0  0  0  0  0  0
   -0.5261    1.7363    1.0689 H   0  0  0  0  0  0
   -0.4449   -0.6044    0.5711 H   0  0  0  0  0  0
    1.7487    0.8152   -0.7779 H   0  0  0  0  0  0
    1.6182    0.5063    0.9406 H   0  0  0  0  0  0
    2.0720   -2.5224   -1.7400 H   0  0  0  0  0  0
    3.8313   -3.3759    0.6840 H   0  0  0  0  0  0
    3.7408   -3.2539   -1.0485 H   0  0  0  0  0  0
    5.9624   -3.1702    1.7933 H   0  0  0  0  0  0
    9.5183   -2.5229   -0.5883 H   0  0  0  0  0  0
    8.0988   -2.1832   -2.5903 H   0  0  0  0  0  0
    5.6272   -2.2955   -2.3969 H   0  0  0  0  0  0
    7.3024   -2.8548    3.3432 H   0  0  0  0  0  0
    8.1920   -4.3712    3.2472 H   0  0  0  0  0  0
    9.1784   -3.1409    5.0860 H   0  0  0  0  0  0
   10.3052   -2.9836    3.7664 H   0  0  0  0  0  0
   10.1571   -0.7587    4.4728 H   0  0  0  0  0  0
    8.9746   -0.7631    3.1954 H   0  0  0  0  0  0
    7.3176   -1.4480    5.2414 H   0  0  0  0  0  0
    8.5509   -0.7213    6.2087 H   0  0  0  0  0  0
    7.1382    3.0149    3.6942 H   0  0  0  0  0  0
    8.5354    3.8100    4.4107 H   0  0  0  0  0  0
    7.1243    3.4685    5.4092 H   0  0  0  0  0  0
    6.2319   -0.5853    2.9776 H   0  0  0  0  0  0
    2.3084    0.5122    4.4236 H   0  0  0  0  0  0
    2.2204    2.2536    6.1698 H   0  0  0  0  0  0
    3.7053    2.9732    6.7960 H   0  0  0  0  0  0
    3.1274    1.4332    7.4467 H   0  0  0  0  0  0
    4.7262   -0.0073    1.1129 H   0  0  0  0  0  0
   -4.5136    1.2530   -2.4286 H   0  0  0  0  0  0
   -6.0601    0.7698   -0.5273 H   0  0  0  0  0  0
   -0.3602   -0.3010   -1.0389 H   0  0  0  0  0  0
  1  2  1  0  0  0
  1 44  1  0  0  0
  1 45  1  0  0  0
  1 46  1  0  0  0
  2  3  1  0  0  0
  2  4  1  0  0  0
  2 47  1  0  0  0
  3 48  1  0  0  0
  3 49  1  0  0  0
  3 50  1  0  0  0
  4 41  1  0  0  0
  4  5  2  0  0  0
  5  6  1  0  0  0
  5 51  1  0  0  0
  6  7  1  0  0  0
  6 39  2  0  0  0
  7  8  1  0  0  0
  7 52  1  0  0  0
  7 53  1  0  0  0
  8  9  1  0  0  0
  8 54  1  0  0  0
  8 83  1  0  0  0
  9 10  1  0  0  0
  9 55  1  0  0  0
  9 56  1  0  0  0
 10 42  1  0  0  0
 10 11  1  0  0  0
 10 12  1  0  0  0
 11 57  1  0  0  0
 12 43  1  0  0  0
 12 38  1  0  0  0
 12 13  1  0  0  0
 13 14  1  0  0  0
 13 58  1  0  0  0
 13 59  1  0  0  0
 14 19  1  0  0  0
 14 15  2  0  0  0
 15 16  1  0  0  0
 15 60  1  0  0  0
 16 17  2  0  0  0
 16 20  1  0  0  0
 17 18  1  0  0  0
 17 61  1  0  0  0
 18 19  2  0  0  0
 18 62  1  0  0  0
 19 63  1  0  0  0
 20 21  1  0  0  0
 21 22  1  0  0  0
 21 64  1  0  0  0
 21 65  1  0  0  0
 22 23  1  0  0  0
 22 66  1  0  0  0
 22 67  1  0  0  0
 23 24  1  0  0  0
 23 68  1  0  0  0
 23 69  1  0  0  0
 24 25  1  0  0  0
 24 70  1  0  0  0
 24 71  1  0  0  0
 25 26  1  0  0  0
 25 29  1  0  0  0
 26 27  1  0  0  0
 26 28  2  0  0  0
 27 72  1  0  0  0
 27 73  1  0  0  0
 27 74  1  0  0  0
 29 35  1  0  0  0
 29 30  2  0  0  0
 30 31  1  0  0  0
 30 75  1  0  0  0
 31 32  2  0  0  0
 31 36  1  0  0  0
 32 33  1  0  0  0
 32 76  1  0  0  0
 33 34  1  0  0  0
 33 35  2  0  0  0
 34 77  1  0  0  0
 34 78  1  0  0  0
 34 79  1  0  0  0
 36 37  2  0  0  0
 36 38  1  0  0  0
 38 80  1  0  0  0
 39 40  1  0  0  0
 40 41  2  0  0  0
 40 81  1  0  0  0
 41 82  1  0  0  0
M  CHG  1   8   1
M  END
> <s_m_source_file>
BACE_101.smi

> <i_m_source_file_index>
1

> <i_lp_mmshare_version>
42013

> <i_f3d_flags>
0

> <s_epik_input>
W0NIM11bQ0hdKFtDSDNdKWMxW2NIXWMobltjSF1bY0hdMSlbQ0gyXVtOSF1bQ0gyXVtDQEBIXShbT0hdKVtDQEhdKFtDSDJdMilbTkhdQyg9TyljKFtjSF1jKG4zKVtDSDNdKVtjSF1jM04oQyg9TylbQ0gzXSlbQ0gyXVtDSDJdW0NIMl1bQ0gyXU9jKFtjSF1jMjQpW2NIXVtjSF1bY0hdNA==

> <s_epik_cmdline>
J2VwaWtfcHl0aG9uJywgJy1waCcsICc3LjAnLCAnLXRuJywgJzgnLCAnLW1hJywgJzIwMCcsICctaW1hZScsICc8aW5maWxlLm1hZT4nLCAnLW9tYWUnLCAnPG91dGZpbGUubWFlPic=

> <r_lp_tautomer_probability>
1

> <r_epik_Ionization_Penalty>
0.0404078

> <r_epik_Ionization_Penalty_Charging>
0.0400697

> <r_epik_Ionization_Penalty_Neutral>
0.000338086

> <r_epik_State_Penalty>
0.0337046

> <r_epik_Charging_Adjusted_Penalty>
0.0737743

> <i_epik_Tot_Q>
1

> <i_epik_Tot_abs_Q>
1

> <s_lp_Force_Field>
OPLS_2005

> <r_lp_Energy>
37.1694

> <b_lp_Chiralities_Consistent>
1

> <s_lp_Variant>
BACE_101.smi:1-1

$$$$
BACE_101.smi:1
                    3D
 Structure written by MMmdl.
 82 85  0  0  1  0            999 V2000
   -4.6745    0.7568   -2.0356 C   0  0  0  0  0  0
   -4.1251    1.8237   -1.0762 C   0  0  0  0  0  0
   -5.0986    3.0016   -0.9167 C   0  0  0  0  0  0
   -2.7401    2.2938   -1.4980 C   0  0  0  0  0  0
   -1.6220    2.0670   -0.6678 C   0  0  0  0  0  0
   -0.3552    2.5114   -1.1023 C   0  0  0  0  0  0
    0.8822    2.2693   -0.2576 C   0  0  0  0  0  0
    1.1937    0.8509   -0.0942 N   0  0  0  0  0  0
    1.6794    0.2021   -1.3106 C   0  0  0  0  0  0
    2.0693   -1.2761   -1.0829 C   0  0  1  0  0  0
    2.0091   -1.8723   -2.3639 O   0  0  0  0  0  0
    3.5104   -1.4923   -0.5319 C   0  0  2  0  0  0
    3.9195   -2.9825   -0.3960 C   0  0  0  0  0  0
    5.4270   -3.1501   -0.3196 C   0  0  0  0  0  0
    6.0866   -3.1635    0.9283 C   0  0  0  0  0  0
    7.5019   -3.2329    0.9901 C   0  0  0  0  0  0
    8.2306   -3.3227   -0.2137 C   0  0  0  0  0  0
    7.5745   -3.3408   -1.4577 C   0  0  0  0  0  0
    6.1732   -3.2483   -1.5109 C   0  0  0  0  0  0
    8.2514   -3.1860    2.1454 O   0  0  0  0  0  0
    7.6298   -3.2888    3.4214 C   0  0  0  0  0  0
    8.5558   -2.5886    4.4268 C   0  0  0  0  0  0
    8.4292   -1.0569    4.3506 C   0  0  0  0  0  0
    7.2799   -0.5179    5.2281 C   0  0  0  0  0  0
    6.7796    0.7970    4.7964 N   0  0  0  0  0  0
    7.5599    1.9032    4.9015 C   0  0  0  0  0  0
    7.0403    3.2446    4.3718 C   0  0  0  0  0  0
    8.6786    1.8819    5.4159 O   0  0  0  0  0  0
    5.4084    0.8585    4.4163 C   0  0  0  0  0  0
    4.9996    0.0597    3.3207 C   0  0  0  0  0  0
    3.6293   -0.0063    2.9861 C   0  0  0  0  0  0
    2.7120    0.7357    3.7566 C   0  0  0  0  0  0
    3.2076    1.5229    4.8130 C   0  0  0  0  0  0
    2.2746    2.3503    5.6718 C   0  0  0  0  0  0
    4.5159    1.5794    5.1378 N   0  0  0  0  0  0
    3.1395   -0.8880    1.8798 C   0  0  0  0  0  0
    2.1696   -1.6251    2.0532 O   0  0  0  0  0  0
    3.7906   -0.7606    0.7101 N   0  0  0  0  0  0
   -0.1579    3.1477   -2.2777 N   0  0  0  0  0  0
   -1.2313    3.3646   -3.0667 C   0  0  0  0  0  0
   -2.5370    2.9597   -2.7262 C   0  0  0  0  0  0
    1.3282   -1.7744   -0.4571 H   0  0  0  0  0  0
    4.1776   -1.0470   -1.2720 H   0  0  0  0  0  0
   -4.0005   -0.0982   -2.0960 H   0  0  0  0  0  0
   -4.8049    1.1503   -3.0440 H   0  0  0  0  0  0
   -5.6432    0.3879   -1.6979 H   0  0  0  0  0  0
   -4.0282    1.3535   -0.0967 H   0  0  0  0  0  0
   -4.7230    3.7225   -0.1898 H   0  0  0  0  0  0
   -6.0730    2.6593   -0.5669 H   0  0  0  0  0  0
   -5.2529    3.5283   -1.8587 H   0  0  0  0  0  0
   -1.7266    1.5569    0.2787 H   0  0  0  0  0  0
    1.7376    2.8007   -0.6775 H   0  0  0  0  0  0
    0.7012    2.7129    0.7216 H   0  0  0  0  0  0
    1.8678    0.7319    0.6548 H   0  0  0  0  0  0
    0.8936    0.2531   -2.0657 H   0  0  0  0  0  0
    2.5296    0.7480   -1.7218 H   0  0  0  0  0  0
    1.1302   -1.7760   -2.6978 H   0  0  0  0  0  0
    3.4482   -3.4454    0.4716 H   0  0  0  0  0  0
    3.5738   -3.5584   -1.2545 H   0  0  0  0  0  0
    5.4781   -3.0855    1.8145 H   0  0  0  0  0  0
    9.3092   -3.3750   -0.1826 H   0  0  0  0  0  0
    8.1470   -3.4099   -2.3710 H   0  0  0  0  0  0
    5.6733   -3.2377   -2.4686 H   0  0  0  0  0  0
    6.6459   -2.8300    3.4842 H   0  0  0  0  0  0
    7.5202   -4.3443    3.6717 H   0  0  0  0  0  0
    8.3344   -2.9253    5.4402 H   0  0  0  0  0  0
    9.5864   -2.8865    4.2300 H   0  0  0  0  0  0
    9.3664   -0.6043    4.6758 H   0  0  0  0  0  0
    8.2948   -0.7523    3.3115 H   0  0  0  0  0  0
    6.4557   -1.2328    5.2310 H   0  0  0  0  0  0
    7.6041   -0.4637    6.2688 H   0  0  0  0  0  0
    6.5642    3.1290    3.3977 H   0  0  0  0  0  0
    7.8620    3.9518    4.2553 H   0  0  0  0  0  0
    6.3217    3.6806    5.0660 H   0  0  0  0  0  0
    5.7253   -0.5225    2.7703 H   0  0  0  0  0  0
    1.6533    0.7042    3.5408 H   0  0  0  0  0  0
    1.2626    2.3543    5.2661 H   0  0  0  0  0  0
    2.6218    3.3826    5.7269 H   0  0  0  0  0  0
    2.2351    1.9462    6.6838 H   0  0  0  0  0  0
    4.5602   -0.1076    0.6788 H   0  0  0  0  0  0
   -1.0443    3.8743   -4.0001 H   0  0  0  0  0  0
   -3.3602    3.1564   -3.3971 H   0  0  0  0  0  0
  1  2  1  0  0  0
  1 44  1  0  0  0
  1 45  1  0  0  0
  1 46  1  0  0  0
  2  3  1  0  0  0
  2  4  1  0  0  0
  2 47  1  0  0  0
  3 48  1  0  0  0
  3 49  1  0  0  0
  3 50  1  0  0  0
  4 41  1  0  0  0
  4  5  2  0  0  0
  5  6  1  0  0  0
  5 51  1  0  0  0
  6  7  1  0  0  0
  6 39  2  0  0  0
  7  8  1  0  0  0
  7 52  1  0  0  0
  7 53  1  0  0  0
  8  9  1  0  0  0
  8 54  1  0  0  0
  9 10  1  0  0  0
  9 55  1  0  0  0
  9 56  1  0  0  0
 10 42  1  0  0  0
 10 11  1  0  0  0
 10 12  1  0  0  0
 11 57  1  0  0  0
 12 43  1  0  0  0
 12 38  1  0  0  0
 12 13  1  0  0  0
 13 14  1  0  0  0
 13 58  1  0  0  0
 13 59  1  0  0  0
 14 19  1  0  0  0
 14 15  2  0  0  0
 15 16  1  0  0  0
 15 60  1  0  0  0
 16 17  2  0  0  0
 16 20  1  0  0  0
 17 18  1  0  0  0
 17 61  1  0  0  0
 18 19  2  0  0  0
 18 62  1  0  0  0
 19 63  1  0  0  0
 20 21  1  0  0  0
 21 22  1  0  0  0
 21 64  1  0  0  0
 21 65  1  0  0  0
 22 23  1  0  0  0
 22 66  1  0  0  0
 22 67  1  0  0  0
 23 24  1  0  0  0
 23 68  1  0  0  0
 23 69  1  0  0  0
 24 25  1  0  0  0
 24 70  1  0  0  0
 24 71  1  0  0  0
 25 26  1  0  0  0
 25 29  1  0  0  0
 26 27  1  0  0  0
 26 28  2  0  0  0
 27 72  1  0  0  0
 27 73  1  0  0  0
 27 74  1  0  0  0
 29 35  1  0  0  0
 29 30  2  0  0  0
 30 31  1  0  0  0
 30 75  1  0  0  0
 31 32  2  0  0  0
 31 36  1  0  0  0
 32 33  1  0  0  0
 32 76  1  0  0  0
 33 34  1  0  0  0
 33 35  2  0  0  0
 34 77  1  0  0  0
 34 78  1  0  0  0
 34 79  1  0  0  0
 36 37  2  0  0  0
 36 38  1  0  0  0
 38 80  1  0  0  0
 39 40  1  0  0  0
 40 41  2  0  0  0
 40 81  1  0  0  0
 41 82  1  0  0  0
M  END
> <s_m_source_file>
BACE_101.smi

> <i_m_source_file_index>
1

> <i_lp_mmshare_version>
42013

> <i_f3d_flags>
0

> <s_epik_input>
W0NIM11bQ0hdKFtDSDNdKWMxW2NIXWMobltjSF1bY0hdMSlbQ0gyXVtOSF1bQ0gyXVtDQEBIXShbT0hdKVtDQEhdKFtDSDJdMilbTkhdQyg9TyljKFtjSF1jKG4zKVtDSDNdKVtjSF1jM04oQyg9TylbQ0gzXSlbQ0gyXVtDSDJdW0NIMl1bQ0gyXU9jKFtjSF1jMjQpW2NIXVtjSF1bY0hdNA==

> <s_epik_cmdline>
J2VwaWtfcHl0aG9uJywgJy1waCcsICc3LjAnLCAnLXRuJywgJzgnLCAnLW1hJywgJzIwMCcsICctaW1hZScsICc8aW5maWxlLm1hZT4nLCAnLW9tYWUnLCAnPG91dGZpbGUubWFlPic=

> <r_lp_tautomer_probability>
1

> <r_epik_Ionization_Penalty>
1.61776

> <r_epik_Ionization_Penalty_Charging>
0

> <r_epik_Ionization_Penalty_Neutral>
1.61776

> <r_epik_State_Penalty>
1.71525

> <r_epik_Charging_Adjusted_Penalty>
1.71525

> <i_epik_Tot_Q>
0

> <i_epik_Tot_abs_Q>
0

> <s_lp_Force_Field>
OPLS_2005

> <r_lp_Energy>
43.9486

> <b_lp_Chiralities_Consistent>
1

> <s_lp_Variant>
BACE_101.smi:1-2

$$$$
