BACE_157.smi:1
                    3D
 Structure written by MMmdl.
 77 79  0  0  1  0            999 V2000
   -5.3409   -2.6190   -4.2084 C   0  0  0  0  0  0
   -3.9631   -3.1472   -3.7942 C   0  0  0  0  0  0
   -3.3224   -2.3108   -2.6778 C   0  0  0  0  0  0
   -1.9457   -2.8492   -2.2570 C   0  0  0  0  0  0
   -1.3675   -2.0534   -1.1811 N   0  0  0  0  0  0
   -0.6968   -0.9029   -1.3463 C   0  0  0  0  0  0
   -0.4973   -0.3889   -2.4474 O   0  0  0  0  0  0
   -0.1624   -0.2329   -0.0714 C   0  0  2  0  0  0
   -0.7234    1.1944    0.0532 C   0  0  0  0  0  0
    1.3851   -0.2235   -0.0328 C   0  0  0  0  0  0
    2.0567   -1.6194   -0.0371 C   0  0  2  0  0  0
    1.6363   -2.3021    1.1304 O   0  0  0  0  0  0
    3.6073   -1.5570   -0.0359 C   0  0  2  0  0  0
    4.1999   -0.6909   -1.1875 C   0  0  0  0  0  0
    5.6332   -1.0181   -1.5924 C   0  0  0  0  0  0
    6.6498   -1.1241   -0.6190 C   0  0  0  0  0  0
    7.9482   -1.5531   -0.9768 C   0  0  0  0  0  0
    9.0315   -1.7533    0.0792 C   0  0  0  0  0  0
    8.5505   -1.9482    1.5127 C   0  0  0  0  0  0
    8.8030   -0.9284    2.4554 C   0  0  0  0  0  0
    8.4341   -1.0933    3.8016 C   0  0  0  0  0  0
    7.8192   -2.2872    4.2139 C   0  0  0  0  0  0
    7.5622   -3.3072    3.2795 C   0  0  0  0  0  0
    7.9093   -3.1488    1.9135 C   0  0  0  0  0  0
    7.6437   -4.0972    0.9420 O   0  0  0  0  0  0
    7.3923   -5.4547    1.3155 C   0  0  0  0  0  0
    5.9152   -5.6975    1.6757 C   0  0  0  0  0  0
    5.6381   -6.1001    2.8033 O   0  0  0  0  0  0
    4.9391   -5.4858    0.7769 N   0  0  0  0  0  0
    5.0442   -5.1038   -0.6317 C   0  0  1  0  0  0
    4.7021   -6.3156   -1.5152 C   0  0  0  0  0  0
    4.1983   -3.8535   -0.9252 C   0  0  0  0  0  0
    3.5932   -3.7411   -1.9913 O   0  0  0  0  0  0
    4.1986   -2.9004    0.0247 N   0  0  0  0  0  0
    8.2398   -1.8023   -2.3393 C   0  0  0  0  0  0
    9.4891   -2.1899   -2.7333 O   0  0  0  0  0  0
    7.2378   -1.6543   -3.3170 C   0  0  0  0  0  0
    5.9366   -1.2734   -2.9450 C   0  0  0  0  0  0
   -0.5283   -0.7949    0.7893 H   0  0  0  0  0  0
    1.7198   -2.1857   -0.9052 H   0  0  0  0  0  0
    3.9249   -1.0868    0.8958 H   0  0  0  0  0  0
    6.0673   -4.8171   -0.8718 H   0  0  0  0  0  0
   -5.7694   -3.2322   -5.0013 H   0  0  0  0  0  0
   -5.2749   -1.5952   -4.5778 H   0  0  0  0  0  0
   -6.0354   -2.6289   -3.3679 H   0  0  0  0  0  0
   -4.0596   -4.1828   -3.4663 H   0  0  0  0  0  0
   -3.3063   -3.1589   -4.6647 H   0  0  0  0  0  0
   -3.2260   -1.2773   -3.0132 H   0  0  0  0  0  0
   -3.9854   -2.2937   -1.8117 H   0  0  0  0  0  0
   -2.0410   -3.8759   -1.9025 H   0  0  0  0  0  0
   -1.2664   -2.8782   -3.1109 H   0  0  0  0  0  0
   -1.4800   -2.4058   -0.2415 H   0  0  0  0  0  0
   -1.8130    1.1990    0.0049 H   0  0  0  0  0  0
   -0.3519    1.8445   -0.7402 H   0  0  0  0  0  0
   -0.4388    1.6422    1.0055 H   0  0  0  0  0  0
    1.7406    0.3569   -0.8846 H   0  0  0  0  0  0
    1.7161    0.3239    0.8509 H   0  0  0  0  0  0
    1.9444   -1.8238    1.8849 H   0  0  0  0  0  0
    3.5699   -0.8069   -2.0705 H   0  0  0  0  0  0
    4.1507    0.3655   -0.9224 H   0  0  0  0  0  0
    6.4070   -0.9227    0.4136 H   0  0  0  0  0  0
    9.6293   -2.6281   -0.1791 H   0  0  0  0  0  0
    9.7100   -0.9010    0.0307 H   0  0  0  0  0  0
    9.2926   -0.0150    2.1504 H   0  0  0  0  0  0
    8.6324   -0.3100    4.5182 H   0  0  0  0  0  0
    7.5417   -2.4221    5.2489 H   0  0  0  0  0  0
    7.0870   -4.2024    3.6436 H   0  0  0  0  0  0
    7.6496   -6.0930    0.4700 H   0  0  0  0  0  0
    8.0461   -5.7641    2.1325 H   0  0  0  0  0  0
    3.9976   -5.6523    1.1021 H   0  0  0  0  0  0
    4.8180   -6.0823   -2.5742 H   0  0  0  0  0  0
    3.6752   -6.6470   -1.3566 H   0  0  0  0  0  0
    5.3605   -7.1569   -1.2961 H   0  0  0  0  0  0
    4.7228   -3.1057    0.8630 H   0  0  0  0  0  0
   10.0995   -2.2604   -2.0157 H   0  0  0  0  0  0
    7.4613   -1.8506   -4.3555 H   0  0  0  0  0  0
    5.1695   -1.1964   -3.7016 H   0  0  0  0  0  0
  1  2  1  0  0  0
  1 43  1  0  0  0
  1 44  1  0  0  0
  1 45  1  0  0  0
  2  3  1  0  0  0
  2 46  1  0  0  0
  2 47  1  0  0  0
  3  4  1  0  0  0
  3 48  1  0  0  0
  3 49  1  0  0  0
  4  5  1  0  0  0
  4 50  1  0  0  0
  4 51  1  0  0  0
  5  6  1  0  0  0
  5 52  1  0  0  0
  6  7  2  0  0  0
  6  8  1  0  0  0
  8 39  1  0  0  0
  8  9  1  0  0  0
  8 10  1  0  0  0
  9 53  1  0  0  0
  9 54  1  0  0  0
  9 55  1  0  0  0
 10 11  1  0  0  0
 10 56  1  0  0  0
 10 57  1  0  0  0
 11 40  1  0  0  0
 11 12  1  0  0  0
 11 13  1  0  0  0
 12 58  1  0  0  0
 13 41  1  0  0  0
 13 34  1  0  0  0
 13 14  1  0  0  0
 14 15  1  0  0  0
 14 59  1  0  0  0
 14 60  1  0  0  0
 15 38  1  0  0  0
 15 16  2  0  0  0
 16 17  1  0  0  0
 16 61  1  0  0  0
 17 18  1  0  0  0
 17 35  2  0  0  0
 18 19  1  0  0  0
 18 62  1  0  0  0
 18 63  1  0  0  0
 19 24  2  0  0  0
 19 20  1  0  0  0
 20 21  2  0  0  0
 20 64  1  0  0  0
 21 22  1  0  0  0
 21 65  1  0  0  0
 22 23  2  0  0  0
 22 66  1  0  0  0
 23 24  1  0  0  0
 23 67  1  0  0  0
 24 25  1  0  0  0
 25 26  1  0  0  0
 26 27  1  0  0  0
 26 68  1  0  0  0
 26 69  1  0  0  0
 27 28  2  0  0  0
 27 29  1  0  0  0
 29 30  1  0  0  0
 29 70  1  0  0  0
 30 42  1  0  0  0
 30 31  1  0  0  0
 30 32  1  0  0  0
 31 71  1  0  0  0
 31 72  1  0  0  0
 31 73  1  0  0  0
 32 33  2  0  0  0
 32 34  1  0  0  0
 34 74  1  0  0  0
 35 36  1  0  0  0
 35 37  1  0  0  0
 36 75  1  0  0  0
 37 38  2  0  0  0
 37 76  1  0  0  0
 38 77  1  0  0  0
M  END
> <s_m_source_file>
BACE_157.smi

> <i_m_source_file_index>
1

> <i_lp_mmshare_version>
42013

> <i_f3d_flags>
0

> <s_epik_input>
W0NIM11bQ0gyXVtDSDJdW0NIMl1bTkhdQyg9TylbQ0BIXShbQ0gzXSlbQ0gyXVtDQEhdKFtPSF0pW0NASF0oW0NIMl0xKVtOSF1DKD1PKVtDQEhdKFtDSDNdKVtOSF1DKD1PKVtDSDJdT2MoW2NIXVtjSF1bY0hdW2NIXTIpYzJbQ0gyXWMoW2NIXWMxMyljKFtPSF0pW2NIXVtjSF0z

> <s_epik_cmdline>
J2VwaWtfcHl0aG9uJywgJy1waCcsICc3LjAnLCAnLXRuJywgJzgnLCAnLW1hJywgJzIwMCcsICctaW1hZScsICc8aW5maWxlLm1hZT4nLCAnLW9tYWUnLCAnPG91dGZpbGUubWFlPic=

> <r_lp_tautomer_probability>
1

> <r_epik_Ionization_Penalty>
0.000199339

> <r_epik_Ionization_Penalty_Charging>
0

> <r_epik_Ionization_Penalty_Neutral>
0.000199339

> <r_epik_State_Penalty>
-0

> <r_epik_Charging_Adjusted_Penalty>
0

> <i_epik_Tot_Q>
0

> <i_epik_Tot_abs_Q>
0

> <s_lp_Force_Field>
OPLS_2005

> <r_lp_Energy>
26.8776

> <b_lp_Chiralities_Consistent>
1

> <s_lp_Variant>
BACE_157.smi:1-1

$$$$
