BACE_1.smi:1
                    3D
 Structure written by MMmdl.
 87 88  0  0  1  0            999 V2000
    2.6254    7.9554    2.0486 C   0  0  0  0  0  0
    1.9778    6.6896    2.6213 C   0  0  0  0  0  0
    1.4699    5.7408    1.5267 C   0  0  0  0  0  0
    0.8134    4.4775    2.0995 C   0  0  0  0  0  0
    0.3372    3.6192    1.0249 N   0  0  0  0  0  0
   -0.2999    2.4539    1.2080 C   0  0  0  0  0  0
   -0.5403    1.9835    2.3204 O   0  0  0  0  0  0
   -0.7233    1.7007   -0.0614 C   0  0  2  0  0  0
   -2.2575    1.6183   -0.1360 C   0  0  0  0  0  0
   -0.0938    0.2899   -0.1471 C   0  0  0  0  0  0
    1.4534    0.2441   -0.1437 C   0  0  2  0  0  0
    1.9523    0.9360   -1.2737 O   0  0  0  0  0  0
    2.0393   -1.1906   -0.0984 C   0  0  2  0  0  0
    3.5870   -1.2034   -0.0226 C   0  0  0  0  0  0
    4.2259   -2.5953    0.2234 C   0  0  2  0  0  0
    4.0654   -3.0201    1.6933 C   0  0  0  0  0  0
    5.7197   -2.6294   -0.1848 C   0  0  0  0  0  0
    5.9858   -2.7420   -1.7019 C   0  0  0  0  0  0
    5.7396   -4.1521   -2.2697 C   0  0  0  0  0  0
    5.9409   -4.2363   -3.7967 C   0  0  0  0  0  0
    5.4967   -5.5794   -4.4212 C   0  0  0  0  0  0
    4.0567   -5.8089   -4.2321 N   0  0  0  0  0  0
    3.6926   -6.7814   -3.1863 C   0  0  0  0  0  0
    3.1454   -8.0838   -3.7883 C   0  0  0  0  0  0
    3.1451   -5.1607   -4.9995 C   0  0  0  0  0  0
    3.3908   -4.7117   -6.1190 O   0  0  0  0  0  0
    1.8290   -4.8383   -4.3577 C   0  0  0  0  0  0
    0.6087   -5.2391   -4.9388 C   0  0  0  0  0  0
   -0.6228   -4.9029   -4.3174 C   0  0  0  0  0  0
   -0.6084   -4.1507   -3.1217 C   0  0  0  0  0  0
    0.6074   -3.7086   -2.5581 C   0  0  0  0  0  0
    1.8179   -4.0622   -3.1846 C   0  0  0  0  0  0
    0.6348   -2.9063   -1.2904 C   0  0  0  0  0  0
   -0.1845   -3.0925   -0.3913 O   0  0  0  0  0  0
    1.6100   -1.9836   -1.2480 N   0  0  0  0  0  0
   -1.8590   -5.2635   -4.8094 O   0  0  0  0  0  0
   -1.9145   -5.9642   -6.0446 C   0  0  0  0  0  0
   -3.3823   -6.1991   -6.4098 C   0  0  0  0  0  0
   -0.3883    2.2747   -0.9269 H   0  0  0  0  0  0
    1.8212    0.7691    0.7380 H   0  0  0  0  0  0
    1.6586   -1.6581    0.8105 H   0  0  0  0  0  0
    3.7022   -3.3397   -0.3740 H   0  0  0  0  0  0
    2.9707    8.6107    2.8485 H   0  0  0  0  0  0
    1.9184    8.5187    1.4389 H   0  0  0  0  0  0
    3.4857    7.7101    1.4253 H   0  0  0  0  0  0
    2.7006    6.1693    3.2507 H   0  0  0  0  0  0
    1.1497    6.9732    3.2720 H   0  0  0  0  0  0
    0.7525    6.2678    0.8961 H   0  0  0  0  0  0
    2.3006    5.4567    0.8791 H   0  0  0  0  0  0
    1.5277    3.9265    2.7131 H   0  0  0  0  0  0
   -0.0248    4.7499    2.7427 H   0  0  0  0  0  0
    0.5003    3.9315    0.0783 H   0  0  0  0  0  0
   -2.7121    2.6084   -0.0818 H   0  0  0  0  0  0
   -2.6680    1.0180    0.6770 H   0  0  0  0  0  0
   -2.5779    1.1645   -1.0742 H   0  0  0  0  0  0
   -0.4660   -0.3173    0.6796 H   0  0  0  0  0  0
   -0.4643   -0.1897   -1.0535 H   0  0  0  0  0  0
    2.8957    0.9521   -1.2220 H   0  0  0  0  0  0
    3.9759   -0.7892   -0.9524 H   0  0  0  0  0  0
    3.9204   -0.5177    0.7574 H   0  0  0  0  0  0
    4.5641   -2.3207    2.3651 H   0  0  0  0  0  0
    4.4938   -4.0079    1.8658 H   0  0  0  0  0  0
    3.0170   -3.0726    1.9856 H   0  0  0  0  0  0
    6.2088   -1.7334    0.1998 H   0  0  0  0  0  0
    6.2202   -3.4648    0.3067 H   0  0  0  0  0  0
    5.3843   -2.0131   -2.2446 H   0  0  0  0  0  0
    7.0248   -2.4722   -1.8939 H   0  0  0  0  0  0
    6.4002   -4.8676   -1.7792 H   0  0  0  0  0  0
    4.7292   -4.4606   -2.0147 H   0  0  0  0  0  0
    5.3979   -3.4223   -4.2784 H   0  0  0  0  0  0
    6.9930   -4.0665   -4.0268 H   0  0  0  0  0  0
    5.7370   -5.5856   -5.4855 H   0  0  0  0  0  0
    6.0829   -6.3955   -3.9973 H   0  0  0  0  0  0
    4.5568   -7.0176   -2.5648 H   0  0  0  0  0  0
    2.9643   -6.3642   -2.4925 H   0  0  0  0  0  0
    2.9144   -8.8041   -3.0033 H   0  0  0  0  0  0
    3.8734   -8.5435   -4.4572 H   0  0  0  0  0  0
    2.2304   -7.9112   -4.3552 H   0  0  0  0  0  0
    0.6398   -5.8130   -5.8528 H   0  0  0  0  0  0
   -1.5457   -3.8975   -2.6470 H   0  0  0  0  0  0
    2.7576   -3.7374   -2.7639 H   0  0  0  0  0  0
    2.1814   -1.8939   -2.0754 H   0  0  0  0  0  0
   -1.4329   -5.3845   -6.8336 H   0  0  0  0  0  0
   -1.3996   -6.9225   -5.9615 H   0  0  0  0  0  0
   -3.4681   -6.7317   -7.3570 H   0  0  0  0  0  0
   -3.9163   -5.2536   -6.5085 H   0  0  0  0  0  0
   -3.8868   -6.7909   -5.6457 H   0  0  0  0  0  0
  1  2  1  0  0  0
  1 43  1  0  0  0
  1 44  1  0  0  0
  1 45  1  0  0  0
  2  3  1  0  0  0
  2 46  1  0  0  0
  2 47  1  0  0  0
  3  4  1  0  0  0
  3 48  1  0  0  0
  3 49  1  0  0  0
  4  5  1  0  0  0
  4 50  1  0  0  0
  4 51  1  0  0  0
  5  6  1  0  0  0
  5 52  1  0  0  0
  6  7  2  0  0  0
  6  8  1  0  0  0
  8 39  1  0  0  0
  8  9  1  0  0  0
  8 10  1  0  0  0
  9 53  1  0  0  0
  9 54  1  0  0  0
  9 55  1  0  0  0
 10 11  1  0  0  0
 10 56  1  0  0  0
 10 57  1  0  0  0
 11 40  1  0  0  0
 11 12  1  0  0  0
 11 13  1  0  0  0
 12 58  1  0  0  0
 13 41  1  0  0  0
 13 35  1  0  0  0
 13 14  1  0  0  0
 14 15  1  0  0  0
 14 59  1  0  0  0
 14 60  1  0  0  0
 15 42  1  0  0  0
 15 16  1  0  0  0
 15 17  1  0  0  0
 16 61  1  0  0  0
 16 62  1  0  0  0
 16 63  1  0  0  0
 17 18  1  0  0  0
 17 64  1  0  0  0
 17 65  1  0  0  0
 18 19  1  0  0  0
 18 66  1  0  0  0
 18 67  1  0  0  0
 19 20  1  0  0  0
 19 68  1  0  0  0
 19 69  1  0  0  0
 20 21  1  0  0  0
 20 70  1  0  0  0
 20 71  1  0  0  0
 21 22  1  0  0  0
 21 72  1  0  0  0
 21 73  1  0  0  0
 22 23  1  0  0  0
 22 25  1  0  0  0
 23 24  1  0  0  0
 23 74  1  0  0  0
 23 75  1  0  0  0
 24 76  1  0  0  0
 24 77  1  0  0  0
 24 78  1  0  0  0
 25 26  2  0  0  0
 25 27  1  0  0  0
 27 32  1  0  0  0
 27 28  2  0  0  0
 28 29  1  0  0  0
 28 79  1  0  0  0
 29 30  2  0  0  0
 29 36  1  0  0  0
 30 31  1  0  0  0
 30 80  1  0  0  0
 31 32  2  0  0  0
 31 33  1  0  0  0
 32 81  1  0  0  0
 33 34  2  0  0  0
 33 35  1  0  0  0
 35 82  1  0  0  0
 36 37  1  0  0  0
 37 38  1  0  0  0
 37 83  1  0  0  0
 37 84  1  0  0  0
 38 85  1  0  0  0
 38 86  1  0  0  0
 38 87  1  0  0  0
M  END
> <s_m_source_file>
BACE_1.smi

> <i_m_source_file_index>
1

> <i_lp_mmshare_version>
42013

> <i_f3d_flags>
0

> <s_epik_input>
W0NIM11bQ0gyXVtDSDJdW0NIMl1bTkhdQyg9TylbQ0BIXShbQ0gzXSlbQ0gyXVtDQEhdKFtPSF0pW0NAQEhdKFtOSF1DKD1PKWMoW2NIXTEpW2NIXWMoW2NIXWMxMilPW0NIMl1bQ0gzXSlbQ0gyXVtDQEhdKFtDSDNdKVtDSDJdW0NIMl1bQ0gyXVtDSDJdW0NIMl1OKEMyPU8pW0NIMl1bQ0gzXQ==

> <s_epik_cmdline>
J2VwaWtfcHl0aG9uJywgJy1waCcsICc3LjAnLCAnLXRuJywgJzgnLCAnLW1hJywgJzIwMCcsICctaW1hZScsICc8aW5maWxlLm1hZT4nLCAnLW9tYWUnLCAnPG91dGZpbGUubWFlPic=

> <r_lp_tautomer_probability>
1

> <r_epik_Ionization_Penalty>
4.8396e-07

> <r_epik_Ionization_Penalty_Charging>
0

> <r_epik_Ionization_Penalty_Neutral>
4.8396e-07

> <r_epik_State_Penalty>
-0

> <r_epik_Charging_Adjusted_Penalty>
0

> <i_epik_Tot_Q>
0

> <i_epik_Tot_abs_Q>
0

> <s_lp_Force_Field>
OPLS_2005

> <r_lp_Energy>
43.0824

> <b_lp_Chiralities_Consistent>
1

> <s_lp_Variant>
BACE_1.smi:1-1

$$$$
