BACE_140.smi:1
                    3D
 Structure written by MMmdl.
 83 87  0  0  1  0            999 V2000
   -7.8721   -1.8586   -0.4796 C   0  0  0  0  0  0
   -8.4180   -0.7170   -1.1224 O   0  0  0  0  0  0
   -7.4600    0.0337   -1.8552 C   0  0  0  0  0  0
   -6.4925    0.7961   -0.9667 C   0  0  0  0  0  0
   -6.9846    1.7056   -0.0100 C   0  0  0  0  0  0
   -6.1020    2.4195    0.8234 C   0  0  0  0  0  0
   -4.7074    2.2362    0.6697 C   0  0  0  0  0  0
   -4.1987    1.3327   -0.2947 C   0  0  0  0  0  0
   -5.1023    0.6176   -1.1106 C   0  0  0  0  0  0
   -2.7194    1.1779   -0.5123 C   0  0  0  0  0  0
   -2.2704    0.9284   -1.6314 O   0  0  0  0  0  0
   -1.9520    1.2935    0.5836 N   0  0  0  0  0  0
   -0.4855    1.2858    0.6104 C   0  0  1  0  0  0
    0.0691    2.2399    1.7005 C   0  0  0  0  0  0
   -0.6854    3.5568    1.7697 C   0  0  0  0  0  0
   -1.7602    3.6985    2.6697 C   0  0  0  0  0  0
   -2.5654    4.8518    2.6491 C   0  0  0  0  0  0
   -2.2412    5.9086    1.7667 C   0  0  0  0  0  0
   -1.1379    5.7900    0.8985 C   0  0  0  0  0  0
   -0.3670    4.6115    0.8906 C   0  0  0  0  0  0
   -3.6506    4.8747    3.4896 O   0  0  0  0  0  0
   -4.8307    5.4961    2.9978 C   0  0  0  0  0  0
   -6.0322    4.7398    3.5792 C   0  0  0  0  0  0
   -6.1529    3.3002    3.0506 C   0  0  0  0  0  0
   -6.6455    3.3160    1.7140 O   0  0  0  0  0  0
    0.0540   -0.1635    0.6813 C   0  0  2  0  0  0
   -0.2487   -0.7234    1.9457 O   0  0  0  0  0  0
    1.5796   -0.2272    0.4880 C   0  0  0  0  0  0
    1.9967   -1.5336   -0.0172 N   0  0  0  0  0  0
    3.4433   -1.7015   -0.1428 C   0  0  0  0  0  0
    4.0077   -3.0592    0.2072 C   0  0  0  0  0  0
    4.2588   -1.8796    1.1192 C   0  0  0  0  0  0
    4.0014   -0.9653   -1.3257 C   0  0  0  0  0  0
    4.6044    0.2999   -1.1621 C   0  0  0  0  0  0
    5.1165    1.0080   -2.2712 C   0  0  0  0  0  0
    5.0226    0.4376   -3.5582 C   0  0  0  0  0  0
    4.4214   -0.8232   -3.7312 C   0  0  0  0  0  0
    3.9112   -1.5199   -2.6195 C   0  0  0  0  0  0
    5.7623    2.3750   -2.0862 C   0  0  0  0  0  0
    7.0286    2.2897   -1.2198 C   0  0  0  0  0  0
    4.7637    3.4033   -1.5314 C   0  0  0  0  0  0
   -0.1608    1.7086   -0.3426 H   0  0  0  0  0  0
   -0.4353   -0.7587   -0.0916 H   0  0  0  0  0  0
   -8.6645   -2.3997    0.0372 H   0  0  0  0  0  0
   -7.1199   -1.5826    0.2602 H   0  0  0  0  0  0
   -7.4184   -2.5380   -1.2023 H   0  0  0  0  0  0
   -6.9237   -0.6137   -2.5510 H   0  0  0  0  0  0
   -7.9976    0.7601   -2.4648 H   0  0  0  0  0  0
   -8.0500    1.8539    0.0899 H   0  0  0  0  0  0
   -4.0273    2.8189    1.2710 H   0  0  0  0  0  0
   -4.7293   -0.0688   -1.8574 H   0  0  0  0  0  0
   -2.4173    1.4626    1.4634 H   0  0  0  0  0  0
    0.0138    1.7712    2.6833 H   0  0  0  0  0  0
    1.1263    2.4411    1.5232 H   0  0  0  0  0  0
   -2.0166    2.8870    3.3353 H   0  0  0  0  0  0
   -2.8334    6.8114    1.7466 H   0  0  0  0  0  0
   -0.8957    6.5962    0.2219 H   0  0  0  0  0  0
    0.4545    4.5113    0.1962 H   0  0  0  0  0  0
   -4.8456    6.5395    3.3147 H   0  0  0  0  0  0
   -4.8882    5.4788    1.9078 H   0  0  0  0  0  0
   -5.9418    4.7181    4.6657 H   0  0  0  0  0  0
   -6.9519    5.2837    3.3620 H   0  0  0  0  0  0
   -5.2124    2.7635    3.1763 H   0  0  0  0  0  0
   -6.8844    2.7603    3.6521 H   0  0  0  0  0  0
    0.1904   -0.2163    2.6113 H   0  0  0  0  0  0
    1.8815    0.5374   -0.2283 H   0  0  0  0  0  0
    2.0909    0.0115    1.4216 H   0  0  0  0  0  0
    1.6046   -2.2779    0.5507 H   0  0  0  0  0  0
    3.3238   -3.8236    0.5711 H   0  0  0  0  0  0
    4.8527   -3.4272   -0.3718 H   0  0  0  0  0  0
    5.2674   -1.4714    1.1397 H   0  0  0  0  0  0
    3.7375   -1.8831    2.0747 H   0  0  0  0  0  0
    4.6679    0.7314   -0.1740 H   0  0  0  0  0  0
    5.4080    0.9642   -4.4189 H   0  0  0  0  0  0
    4.3489   -1.2555   -4.7181 H   0  0  0  0  0  0
    3.4464   -2.4847   -2.7609 H   0  0  0  0  0  0
    6.0718    2.7297   -3.0703 H   0  0  0  0  0  0
    7.7520    1.5978   -1.6523 H   0  0  0  0  0  0
    6.8037    1.9482   -0.2091 H   0  0  0  0  0  0
    7.5131    3.2631   -1.1390 H   0  0  0  0  0  0
    3.8932    3.4938   -2.1818 H   0  0  0  0  0  0
    5.2213    4.3901   -1.4564 H   0  0  0  0  0  0
    4.4099    3.1281   -0.5375 H   0  0  0  0  0  0
  1  2  1  0  0  0
  1 44  1  0  0  0
  1 45  1  0  0  0
  1 46  1  0  0  0
  2  3  1  0  0  0
  3  4  1  0  0  0
  3 47  1  0  0  0
  3 48  1  0  0  0
  4  9  1  0  0  0
  4  5  2  0  0  0
  5  6  1  0  0  0
  5 49  1  0  0  0
  6 25  1  0  0  0
  6  7  2  0  0  0
  7  8  1  0  0  0
  7 50  1  0  0  0
  8  9  2  0  0  0
  8 10  1  0  0  0
  9 51  1  0  0  0
 10 11  2  0  0  0
 10 12  1  0  0  0
 12 13  1  0  0  0
 12 52  1  0  0  0
 13 42  1  0  0  0
 13 14  1  0  0  0
 13 26  1  0  0  0
 14 15  1  0  0  0
 14 53  1  0  0  0
 14 54  1  0  0  0
 15 20  1  0  0  0
 15 16  2  0  0  0
 16 17  1  0  0  0
 16 55  1  0  0  0
 17 18  2  0  0  0
 17 21  1  0  0  0
 18 19  1  0  0  0
 18 56  1  0  0  0
 19 20  2  0  0  0
 19 57  1  0  0  0
 20 58  1  0  0  0
 21 22  1  0  0  0
 22 23  1  0  0  0
 22 59  1  0  0  0
 22 60  1  0  0  0
 23 24  1  0  0  0
 23 61  1  0  0  0
 23 62  1  0  0  0
 24 25  1  0  0  0
 24 63  1  0  0  0
 24 64  1  0  0  0
 26 43  1  0  0  0
 26 27  1  0  0  0
 26 28  1  0  0  0
 27 65  1  0  0  0
 28 29  1  0  0  0
 28 66  1  0  0  0
 28 67  1  0  0  0
 29 30  1  0  0  0
 29 68  1  0  0  0
 30 32  1  0  0  0
 30 31  1  0  0  0
 30 33  1  0  0  0
 31 32  1  0  0  0
 31 69  1  0  0  0
 31 70  1  0  0  0
 32 71  1  0  0  0
 32 72  1  0  0  0
 33 38  1  0  0  0
 33 34  2  0  0  0
 34 35  1  0  0  0
 34 73  1  0  0  0
 35 36  2  0  0  0
 35 39  1  0  0  0
 36 37  1  0  0  0
 36 74  1  0  0  0
 37 38  2  0  0  0
 37 75  1  0  0  0
 38 76  1  0  0  0
 39 40  1  0  0  0
 39 41  1  0  0  0
 39 77  1  0  0  0
 40 78  1  0  0  0
 40 79  1  0  0  0
 40 80  1  0  0  0
 41 81  1  0  0  0
 41 82  1  0  0  0
 41 83  1  0  0  0
M  END
> <s_m_source_file>
BACE_140.smi

> <i_m_source_file_index>
1

> <i_lp_mmshare_version>
42013

> <i_f3d_flags>
0

> <s_epik_input>
TzFbQ0gyXVtDSDJdW0NIMl1PYyhbY0hdW2NIXVtjSF0yKVtjSF1jMltDSDJdW0NASF0oW05IXUMoPU8pYyhbY0hdMylbY0hdYyhbY0hdYzEzKVtDSDJdT1tDSDNdKVtDQEhdKFtPSF0pW0NIMl1bTkhdQzQoW0NIMl1bQ0gyXTQpYzVbY0hdYyhbQ0hdKFtDSDNdKVtDSDNdKVtjSF1bY0hdW2NIXTU=

> <s_epik_cmdline>
J2VwaWtfcHl0aG9uJywgJy1waCcsICc3LjAnLCAnLXRuJywgJzgnLCAnLW1hJywgJzIwMCcsICctaW1hZScsICc8aW5maWxlLm1hZT4nLCAnLW9tYWUnLCAnPG91dGZpbGUubWFlPic=

> <r_lp_tautomer_probability>
1

> <r_epik_Ionization_Penalty>
0.322948

> <r_epik_Ionization_Penalty_Charging>
0

> <r_epik_Ionization_Penalty_Neutral>
0.322948

> <r_epik_State_Penalty>
0.317604

> <r_epik_Charging_Adjusted_Penalty>
0.317604

> <i_epik_Tot_Q>
0

> <i_epik_Tot_abs_Q>
0

> <s_lp_Force_Field>
OPLS_2005

> <r_lp_Energy>
55.3845

> <b_lp_Chiralities_Consistent>
1

> <s_lp_Variant>
BACE_140.smi:1-1

$$$$
BACE_140.smi:1
                    3D
 Structure written by MMmdl.
 84 88  0  0  1  0            999 V2000
    2.5971    8.1672   -1.9383 C   0  0  0  0  0  0
    3.3131    7.4876   -2.9579 O   0  0  0  0  0  0
    3.5466    6.1162   -2.6703 C   0  0  0  0  0  0
    2.2931    5.2625   -2.7590 C   0  0  0  0  0  0
    1.4768    5.3215   -3.9072 C   0  0  0  0  0  0
    0.3200    4.5237   -4.0144 C   0  0  0  0  0  0
    0.0082    3.6395   -2.9540 C   0  0  0  0  0  0
    0.7912    3.5967   -1.7782 C   0  0  0  0  0  0
    1.9432    4.4074   -1.6952 C   0  0  0  0  0  0
    0.3677    2.7607   -0.6015 C   0  0  0  0  0  0
    0.8176    2.9769    0.5240 O   0  0  0  0  0  0
   -0.4998    1.7695   -0.8723 N   0  0  0  0  0  0
   -1.1600    0.8984    0.1010 C   0  0  1  0  0  0
   -2.6661    0.7730   -0.2537 C   0  0  0  0  0  0
   -2.9609    0.4492   -1.7142 C   0  0  0  0  0  0
   -3.2866    1.4749   -2.6337 C   0  0  0  0  0  0
   -3.5298    1.1675   -3.9967 C   0  0  0  0  0  0
   -3.4540   -0.1768   -4.4139 C   0  0  0  0  0  0
   -3.1587   -1.2028   -3.4990 C   0  0  0  0  0  0
   -2.9175   -0.8905   -2.1505 C   0  0  0  0  0  0
   -3.8341    2.0861   -4.9796 O   0  0  0  0  0  0
   -4.0741    3.4546   -4.6617 C   0  0  0  0  0  0
   -2.7955    4.2865   -4.4413 C   0  0  0  0  0  0
   -1.6072    3.8582   -5.3319 C   0  0  0  0  0  0
   -0.4503    4.6742   -5.1513 O   0  0  0  0  0  0
   -0.4263   -0.4668    0.2410 C   0  0  2  0  0  0
   -0.9440   -1.1359    1.3755 O   0  0  0  0  0  0
    1.0968   -0.3276    0.4363 C   0  0  0  0  0  0
    1.7813   -1.6300    0.5798 N   0  3  0  0  0  0
    3.2556   -1.5722    0.4401 C   0  0  0  0  0  0
    3.7387   -1.9821   -0.9317 C   0  0  0  0  0  0
    3.8782   -2.9334    0.2387 C   0  0  0  0  0  0
    3.9352   -0.4991    1.2434 C   0  0  0  0  0  0
    4.1756    0.7709    0.6745 C   0  0  0  0  0  0
    4.7811    1.7996    1.4261 C   0  0  0  0  0  0
    5.1685    1.5434    2.7590 C   0  0  0  0  0  0
    4.9420    0.2774    3.3313 C   0  0  0  0  0  0
    4.3245   -0.7384    2.5774 C   0  0  0  0  0  0
    5.0022    3.1701    0.7979 C   0  0  0  0  0  0
    6.4967    3.4985    0.6642 C   0  0  0  0  0  0
    4.2453    4.2723    1.5560 C   0  0  0  0  0  0
   -1.1141    1.3827    1.0788 H   0  0  0  0  0  0
   -0.6042   -1.0815   -0.6403 H   0  0  0  0  0  0
    2.4837    9.2161   -2.2109 H   0  0  0  0  0  0
    3.1291    8.1238   -0.9871 H   0  0  0  0  0  0
    1.5993    7.7494   -1.8003 H   0  0  0  0  0  0
    4.2609    5.7364   -3.4012 H   0  0  0  0  0  0
    4.0221    6.0108   -1.6934 H   0  0  0  0  0  0
    1.7362    5.9922   -4.7135 H   0  0  0  0  0  0
   -0.8573    3.0029   -3.0209 H   0  0  0  0  0  0
    2.5581    4.3882   -0.8080 H   0  0  0  0  0  0
   -0.7882    1.6599   -1.8343 H   0  0  0  0  0  0
   -3.1505    0.0307    0.3814 H   0  0  0  0  0  0
   -3.1591    1.7171   -0.0169 H   0  0  0  0  0  0
   -3.3353    2.4920   -2.2777 H   0  0  0  0  0  0
   -3.6349   -0.4255   -5.4495 H   0  0  0  0  0  0
   -3.1168   -2.2289   -3.8335 H   0  0  0  0  0  0
   -2.6942   -1.6848   -1.4536 H   0  0  0  0  0  0
   -4.6047    3.8690   -5.5192 H   0  0  0  0  0  0
   -4.7601    3.5513   -3.8191 H   0  0  0  0  0  0
   -3.0249    5.3352   -4.6321 H   0  0  0  0  0  0
   -2.5328    4.2540   -3.3878 H   0  0  0  0  0  0
   -1.3505    2.8077   -5.1905 H   0  0  0  0  0  0
   -1.9025    3.9487   -6.3774 H   0  0  0  0  0  0
   -1.8768   -1.2437    1.2637 H   0  0  0  0  0  0
    1.5298    0.1633   -0.4349 H   0  0  0  0  0  0
    1.3111    0.2964    1.3052 H   0  0  0  0  0  0
    1.5518   -2.0067    1.4885 H   0  0  0  0  0  0
    3.0000   -2.2387   -1.6889 H   0  0  0  0  0  0
    4.6522   -1.5257   -1.3082 H   0  0  0  0  0  0
    4.8834   -3.0971    0.6224 H   0  0  0  0  0  0
    3.2307   -3.8084    0.2398 H   0  0  0  0  0  0
    3.8761    0.9596   -0.3462 H   0  0  0  0  0  0
    5.6376    2.3170    3.3488 H   0  0  0  0  0  0
    5.2383    0.0872    4.3524 H   0  0  0  0  0  0
    4.1478   -1.7040    3.0284 H   0  0  0  0  0  0
    4.5918    3.1400   -0.2123 H   0  0  0  0  0  0
    7.0127    2.7410    0.0735 H   0  0  0  0  0  0
    6.9854    3.5529    1.6373 H   0  0  0  0  0  0
    6.6422    4.4581    0.1673 H   0  0  0  0  0  0
    3.1795    4.0503    1.6102 H   0  0  0  0  0  0
    4.3545    5.2359    1.0574 H   0  0  0  0  0  0
    4.6123    4.3858    2.5762 H   0  0  0  0  0  0
    1.4254   -2.2576   -0.1265 H   0  0  0  0  0  0
  1  2  1  0  0  0
  1 44  1  0  0  0
  1 45  1  0  0  0
  1 46  1  0  0  0
  2  3  1  0  0  0
  3  4  1  0  0  0
  3 47  1  0  0  0
  3 48  1  0  0  0
  4  9  1  0  0  0
  4  5  2  0  0  0
  5  6  1  0  0  0
  5 49  1  0  0  0
  6 25  1  0  0  0
  6  7  2  0  0  0
  7  8  1  0  0  0
  7 50  1  0  0  0
  8  9  2  0  0  0
  8 10  1  0  0  0
  9 51  1  0  0  0
 10 11  2  0  0  0
 10 12  1  0  0  0
 12 13  1  0  0  0
 12 52  1  0  0  0
 13 42  1  0  0  0
 13 14  1  0  0  0
 13 26  1  0  0  0
 14 15  1  0  0  0
 14 53  1  0  0  0
 14 54  1  0  0  0
 15 20  1  0  0  0
 15 16  2  0  0  0
 16 17  1  0  0  0
 16 55  1  0  0  0
 17 18  2  0  0  0
 17 21  1  0  0  0
 18 19  1  0  0  0
 18 56  1  0  0  0
 19 20  2  0  0  0
 19 57  1  0  0  0
 20 58  1  0  0  0
 21 22  1  0  0  0
 22 23  1  0  0  0
 22 59  1  0  0  0
 22 60  1  0  0  0
 23 24  1  0  0  0
 23 61  1  0  0  0
 23 62  1  0  0  0
 24 25  1  0  0  0
 24 63  1  0  0  0
 24 64  1  0  0  0
 26 43  1  0  0  0
 26 27  1  0  0  0
 26 28  1  0  0  0
 27 65  1  0  0  0
 28 29  1  0  0  0
 28 66  1  0  0  0
 28 67  1  0  0  0
 29 30  1  0  0  0
 29 68  1  0  0  0
 29 84  1  0  0  0
 30 32  1  0  0  0
 30 31  1  0  0  0
 30 33  1  0  0  0
 31 32  1  0  0  0
 31 69  1  0  0  0
 31 70  1  0  0  0
 32 71  1  0  0  0
 32 72  1  0  0  0
 33 38  1  0  0  0
 33 34  2  0  0  0
 34 35  1  0  0  0
 34 73  1  0  0  0
 35 36  2  0  0  0
 35 39  1  0  0  0
 36 37  1  0  0  0
 36 74  1  0  0  0
 37 38  2  0  0  0
 37 75  1  0  0  0
 38 76  1  0  0  0
 39 40  1  0  0  0
 39 41  1  0  0  0
 39 77  1  0  0  0
 40 78  1  0  0  0
 40 79  1  0  0  0
 40 80  1  0  0  0
 41 81  1  0  0  0
 41 82  1  0  0  0
 41 83  1  0  0  0
M  CHG  1  29   1
M  END
> <s_m_source_file>
BACE_140.smi

> <i_m_source_file_index>
1

> <i_lp_mmshare_version>
42013

> <i_f3d_flags>
0

> <s_epik_input>
TzFbQ0gyXVtDSDJdW0NIMl1PYyhbY0hdW2NIXVtjSF0yKVtjSF1jMltDSDJdW0NASF0oW05IXUMoPU8pYyhbY0hdMylbY0hdYyhbY0hdYzEzKVtDSDJdT1tDSDNdKVtDQEhdKFtPSF0pW0NIMl1bTkhdQzQoW0NIMl1bQ0gyXTQpYzVbY0hdYyhbQ0hdKFtDSDNdKVtDSDNdKVtjSF1bY0hdW2NIXTU=

> <s_epik_cmdline>
J2VwaWtfcHl0aG9uJywgJy1waCcsICc3LjAnLCAnLXRuJywgJzgnLCAnLW1hJywgJzIwMCcsICctaW1hZScsICc8aW5maWxlLm1hZT4nLCAnLW9tYWUnLCAnPG91dGZpbGUubWFlPic=

> <r_lp_tautomer_probability>
1

> <r_epik_Ionization_Penalty>
0.5137

> <r_epik_Ionization_Penalty_Charging>
0.513699

> <r_epik_Ionization_Penalty_Neutral>
8.78701e-07

> <r_epik_State_Penalty>
0.521152

> <r_epik_Charging_Adjusted_Penalty>
1.03485

> <i_epik_Tot_Q>
1

> <i_epik_Tot_abs_Q>
1

> <s_lp_Force_Field>
OPLS_2005

> <r_lp_Energy>
44.4551

> <b_lp_Chiralities_Consistent>
1

> <s_lp_Variant>
BACE_140.smi:1-2

$$$$
