BACE_34.smi:1
                    3D
 Structure written by MMmdl.
 80 81  0  0  1  0            999 V2000
   -1.8366    2.2797    4.5757 C   0  0  0  0  0  0
   -0.9961    3.5135    4.2120 C   0  0  0  0  0  0
   -1.8531    4.6116    3.5632 C   0  0  0  0  0  0
    0.1962    3.1418    3.3400 C   0  0  0  0  0  0
    1.5100    3.3355    3.8186 C   0  0  0  0  0  0
    2.6160    2.9924    3.0177 C   0  0  0  0  0  0
    2.4165    2.4528    1.7332 C   0  0  0  0  0  0
    1.1080    2.2545    1.2462 C   0  0  0  0  0  0
    0.8869    1.6656   -0.1345 C   0  0  0  0  0  0
    0.5376    0.2312   -0.0790 N   0  3  0  0  0  0
    1.5911   -0.6540    0.4556 C   0  0  0  0  0  0
    1.3088   -2.1555    0.2208 C   0  0  1  0  0  0
    0.2229   -2.5317    1.0465 O   0  0  0  0  0  0
    1.1168   -2.5867   -1.2727 C   0  0  2  0  0  0
   -0.3414   -2.9408   -1.7020 C   0  0  0  0  0  0
   -1.4439   -1.8523   -1.6406 C   0  0  2  0  0  0
   -2.8439   -2.4899   -1.6759 C   0  0  0  0  0  0
   -1.3015   -0.7416   -2.7058 C   0  0  0  0  0  0
   -1.6009   -1.1779   -4.1587 C   0  0  0  0  0  0
   -1.2397   -0.1213   -5.2209 C   0  0  0  0  0  0
    0.1626   -0.2944   -5.8342 C   0  0  0  0  0  0
    1.2936   -0.1494   -4.8139 C   0  0  0  0  0  0
    2.5547   -0.3049   -5.4460 O   0  0  0  0  0  0
    3.6803    0.0321   -4.6356 C   0  0  0  0  0  0
    3.7458   -0.7846   -3.3259 C   0  0  0  0  0  0
    3.5773   -0.1632   -2.2785 O   0  0  0  0  0  0
    4.0058   -2.1191   -3.3717 N   0  0  0  0  0  0
    3.9955   -2.8240   -4.6630 C   0  0  0  0  0  0
    4.2130   -2.9939   -2.1888 C   0  0  1  0  0  0
    4.8542   -2.3596   -0.9367 C   0  0  0  0  0  0
    3.1450   -4.0743   -1.9024 C   0  0  0  0  0  0
    3.4813   -5.2502   -2.0281 O   0  0  0  0  0  0
    1.8801   -3.8115   -1.5215 N   0  0  0  0  0  0
    0.0024    2.6009    2.0499 C   0  0  0  0  0  0
    2.1706   -2.6856    0.6285 H   0  0  0  0  0  0
    1.5015   -1.8115   -1.9294 H   0  0  0  0  0  0
   -1.3865   -1.3727   -0.6668 H   0  0  0  0  0  0
    5.0596   -3.5938   -2.5298 H   0  0  0  0  0  0
   -1.2314    1.5318    5.0885 H   0  0  0  0  0  0
   -2.2681    1.8106    3.6913 H   0  0  0  0  0  0
   -2.6581    2.5486    5.2402 H   0  0  0  0  0  0
   -0.6079    3.9224    5.1459 H   0  0  0  0  0  0
   -1.2561    5.4992    3.3519 H   0  0  0  0  0  0
   -2.6670    4.9134    4.2228 H   0  0  0  0  0  0
   -2.2971    4.2769    2.6255 H   0  0  0  0  0  0
    1.6770    3.7488    4.8027 H   0  0  0  0  0  0
    3.6188    3.1431    3.3900 H   0  0  0  0  0  0
    3.2703    2.1892    1.1259 H   0  0  0  0  0  0
    0.0739    2.2015   -0.6252 H   0  0  0  0  0  0
    1.7727    1.8061   -0.7558 H   0  0  0  0  0  0
   -0.2959    0.1159    0.4798 H   0  0  0  0  0  0
    2.5330   -0.3734   -0.0051 H   0  0  0  0  0  0
    1.7119   -0.4642    1.5229 H   0  0  0  0  0  0
    0.4751   -2.4189    1.9507 H   0  0  0  0  0  0
   -0.3163   -3.3469   -2.7133 H   0  0  0  0  0  0
   -0.6692   -3.7815   -1.0881 H   0  0  0  0  0  0
   -2.9982   -3.0766   -2.5817 H   0  0  0  0  0  0
   -3.6248   -1.7305   -1.6307 H   0  0  0  0  0  0
   -2.9913   -3.1578   -0.8267 H   0  0  0  0  0  0
   -1.9807    0.0731   -2.4516 H   0  0  0  0  0  0
   -0.3090   -0.3063   -2.6292 H   0  0  0  0  0  0
   -1.1023   -2.1156   -4.4013 H   0  0  0  0  0  0
   -2.6683   -1.3849   -4.2386 H   0  0  0  0  0  0
   -1.9623   -0.1943   -6.0344 H   0  0  0  0  0  0
   -1.3573    0.8837   -4.8139 H   0  0  0  0  0  0
    0.2327   -1.2702   -6.3167 H   0  0  0  0  0  0
    0.2986    0.4450   -6.6240 H   0  0  0  0  0  0
    1.2303    0.8204   -4.3175 H   0  0  0  0  0  0
    1.1888   -0.9293   -4.0634 H   0  0  0  0  0  0
    4.5960   -0.1104   -5.2095 H   0  0  0  0  0  0
    3.6389    1.0969   -4.3995 H   0  0  0  0  0  0
    4.7114   -2.3919   -5.3627 H   0  0  0  0  0  0
    3.0027   -2.7928   -5.1129 H   0  0  0  0  0  0
    4.2586   -3.8780   -4.5686 H   0  0  0  0  0  0
    5.1896   -3.1323   -0.2438 H   0  0  0  0  0  0
    4.1681   -1.7274   -0.3844 H   0  0  0  0  0  0
    5.7288   -1.7634   -1.1988 H   0  0  0  0  0  0
    1.3309   -4.6465   -1.3752 H   0  0  0  0  0  0
   -0.9989    2.4470    1.6748 H   0  0  0  0  0  0
    0.3338   -0.0691   -1.0213 H   0  0  0  0  0  0
  1  2  1  0  0  0
  1 39  1  0  0  0
  1 40  1  0  0  0
  1 41  1  0  0  0
  2  3  1  0  0  0
  2  4  1  0  0  0
  2 42  1  0  0  0
  3 43  1  0  0  0
  3 44  1  0  0  0
  3 45  1  0  0  0
  4 34  1  0  0  0
  4  5  2  0  0  0
  5  6  1  0  0  0
  5 46  1  0  0  0
  6  7  2  0  0  0
  6 47  1  0  0  0
  7  8  1  0  0  0
  7 48  1  0  0  0
  8  9  1  0  0  0
  8 34  2  0  0  0
  9 10  1  0  0  0
  9 49  1  0  0  0
  9 50  1  0  0  0
 10 11  1  0  0  0
 10 51  1  0  0  0
 10 80  1  0  0  0
 11 12  1  0  0  0
 11 52  1  0  0  0
 11 53  1  0  0  0
 12 35  1  0  0  0
 12 13  1  0  0  0
 12 14  1  0  0  0
 13 54  1  0  0  0
 14 36  1  0  0  0
 14 33  1  0  0  0
 14 15  1  0  0  0
 15 16  1  0  0  0
 15 55  1  0  0  0
 15 56  1  0  0  0
 16 37  1  0  0  0
 16 17  1  0  0  0
 16 18  1  0  0  0
 17 57  1  0  0  0
 17 58  1  0  0  0
 17 59  1  0  0  0
 18 19  1  0  0  0
 18 60  1  0  0  0
 18 61  1  0  0  0
 19 20  1  0  0  0
 19 62  1  0  0  0
 19 63  1  0  0  0
 20 21  1  0  0  0
 20 64  1  0  0  0
 20 65  1  0  0  0
 21 22  1  0  0  0
 21 66  1  0  0  0
 21 67  1  0  0  0
 22 23  1  0  0  0
 22 68  1  0  0  0
 22 69  1  0  0  0
 23 24  1  0  0  0
 24 25  1  0  0  0
 24 70  1  0  0  0
 24 71  1  0  0  0
 25 26  2  0  0  0
 25 27  1  0  0  0
 27 28  1  0  0  0
 27 29  1  0  0  0
 28 72  1  0  0  0
 28 73  1  0  0  0
 28 74  1  0  0  0
 29 38  1  0  0  0
 29 30  1  0  0  0
 29 31  1  0  0  0
 30 75  1  0  0  0
 30 76  1  0  0  0
 30 77  1  0  0  0
 31 32  2  0  0  0
 31 33  1  0  0  0
 33 78  1  0  0  0
 34 79  1  0  0  0
M  CHG  1  10   1
M  END
> <s_m_source_file>
BACE_34.smi

> <i_m_source_file_index>
1

> <i_lp_mmshare_version>
42013

> <i_f3d_flags>
0

> <s_epik_input>
W0NIM11bQ0hdKFtDSDNdKWMxW2NIXVtjSF1bY0hdYyhbY0hdMSlbQ0gyXVtOSF1bQ0gyXVtDQEBIXShbT0hdKVtDQEBIXTJbQ0gyXVtDQEhdKFtDSDNdKVtDSDJdW0NIMl1bQ0gyXVtDSDJdW0NIMl1PW0NIMl1DKD1PKU4oW0NIM10pW0NAQEhdKFtDSDNdKUMoPU8pW05IXTI=

> <s_epik_cmdline>
J2VwaWtfcHl0aG9uJywgJy1waCcsICc3LjAnLCAnLXRuJywgJzgnLCAnLW1hJywgJzIwMCcsICctaW1hZScsICc8aW5maWxlLm1hZT4nLCAnLW9tYWUnLCAnPG91dGZpbGUubWFlPic=

> <r_epik_Ionization_Penalty>
0.0181597

> <r_epik_Ionization_Penalty_Charging>
0.0181594

> <r_epik_Ionization_Penalty_Neutral>
3.09395e-07

> <r_epik_State_Penalty>
0.0144341

> <r_epik_Charging_Adjusted_Penalty>
0.0325934

> <i_epik_Tot_Q>
1

> <i_epik_Tot_abs_Q>
1

> <s_lp_Force_Field>
OPLS_2005

> <r_lp_Energy>
48.6812

> <b_lp_Chiralities_Consistent>
1

> <s_lp_Variant>
BACE_34.smi:1-1

$$$$
BACE_34.smi:1
                    3D
 Structure written by MMmdl.
 79 80  0  0  1  0            999 V2000
    4.1449    5.4096    2.3586 C   0  0  0  0  0  0
    3.2632    4.4404    3.1620 C   0  0  0  0  0  0
    4.0755    3.2581    3.7129 C   0  0  0  0  0  0
    2.0640    3.9650    2.3521 C   0  0  0  0  0  0
    0.7544    4.2463    2.7969 C   0  0  0  0  0  0
   -0.3583    3.8031    2.0565 C   0  0  0  0  0  0
   -0.1694    3.0757    0.8662 C   0  0  0  0  0  0
    1.1346    2.7914    0.4126 C   0  0  0  0  0  0
    1.3413    1.9997   -0.8640 C   0  0  0  0  0  0
    0.9839    0.5917   -0.7211 N   0  0  0  0  0  0
    1.9281   -0.1928    0.0671 C   0  0  0  0  0  0
    1.6013   -1.7053    0.1081 C   0  0  1  0  0  0
    0.6346   -1.9094    1.1203 O   0  0  0  0  0  0
    1.2193   -2.3871   -1.2497 C   0  0  2  0  0  0
   -0.2870   -2.7533   -1.4265 C   0  0  0  0  0  0
   -1.3473   -1.6222   -1.4473 C   0  0  2  0  0  0
   -2.7520   -2.1845   -1.1701 C   0  0  0  0  0  0
   -1.3323   -0.7543   -2.7262 C   0  0  0  0  0  0
   -1.7848   -1.4632   -4.0237 C   0  0  0  0  0  0
   -1.5476   -0.6338   -5.3016 C   0  0  0  0  0  0
   -0.2073   -0.9187   -6.0070 C   0  0  0  0  0  0
    1.0165   -0.6058   -5.1420 C   0  0  0  0  0  0
    2.2143   -0.8630   -5.8587 O   0  0  0  0  0  0
    3.4082   -0.4120   -5.2184 C   0  0  0  0  0  0
    3.6113   -1.0217   -3.8129 C   0  0  0  0  0  0
    3.5694   -0.2447   -2.8610 O   0  0  0  0  0  0
    3.8533   -2.3542   -3.6810 N   0  0  0  0  0  0
    3.6965   -3.2476   -4.8393 C   0  0  0  0  0  0
    4.1824   -3.0435   -2.4067 C   0  0  1  0  0  0
    4.9760   -2.2460   -1.3507 C   0  0  0  0  0  0
    3.1365   -4.0281   -1.8356 C   0  0  0  0  0  0
    3.4378   -5.2199   -1.8047 O   0  0  0  0  0  0
    1.9274   -3.6636   -1.3677 N   0  0  0  0  0  0
    2.2469    3.2360    1.1563 C   0  0  0  0  0  0
    2.5011   -2.1835    0.4969 H   0  0  0  0  0  0
    1.5287   -1.7572   -2.0781 H   0  0  0  0  0  0
   -1.1406   -0.9582   -0.6104 H   0  0  0  0  0  0
    4.9731   -3.7187   -2.7402 H   0  0  0  0  0  0
    3.5687    6.2692    2.0148 H   0  0  0  0  0  0
    4.5802    4.9281    1.4826 H   0  0  0  0  0  0
    4.9663    5.7874    2.9678 H   0  0  0  0  0  0
    2.8828    4.9946    4.0211 H   0  0  0  0  0  0
    3.4517    2.6075    4.3266 H   0  0  0  0  0  0
    4.8995    3.6063    4.3359 H   0  0  0  0  0  0
    4.5011    2.6526    2.9124 H   0  0  0  0  0  0
    0.5955    4.8014    3.7098 H   0  0  0  0  0  0
   -1.3578    4.0195    2.4035 H   0  0  0  0  0  0
   -1.0262    2.7334    0.3042 H   0  0  0  0  0  0
    0.7166    2.4516   -1.6348 H   0  0  0  0  0  0
    2.3706    2.1008   -1.2108 H   0  0  0  0  0  0
    0.8635    0.1728   -1.6375 H   0  0  0  0  0  0
    2.9207   -0.0545   -0.3540 H   0  0  0  0  0  0
    1.9910    0.1985    1.0832 H   0  0  0  0  0  0
    0.9500   -1.5158    1.9192 H   0  0  0  0  0  0
   -0.3973   -3.3472   -2.3333 H   0  0  0  0  0  0
   -0.5525   -3.4456   -0.6260 H   0  0  0  0  0  0
   -3.0387   -2.9352   -1.9067 H   0  0  0  0  0  0
   -3.5033   -1.3944   -1.1855 H   0  0  0  0  0  0
   -2.7971   -2.6564   -0.1881 H   0  0  0  0  0  0
   -1.9808    0.1082   -2.5672 H   0  0  0  0  0  0
   -0.3407   -0.3304   -2.8481 H   0  0  0  0  0  0
   -1.3059   -2.4352   -4.1345 H   0  0  0  0  0  0
   -2.8526   -1.6693   -3.9445 H   0  0  0  0  0  0
   -2.3447   -0.8619   -6.0100 H   0  0  0  0  0  0
   -1.6442    0.4307   -5.0845 H   0  0  0  0  0  0
   -0.1725   -1.9638   -6.3171 H   0  0  0  0  0  0
   -0.1564   -0.3285   -6.9225 H   0  0  0  0  0  0
    0.9865    0.4321   -4.8067 H   0  0  0  0  0  0
    0.9971   -1.2529   -4.2684 H   0  0  0  0  0  0
    4.2658   -0.6457   -5.8492 H   0  0  0  0  0  0
    3.3793    0.6762   -5.1432 H   0  0  0  0  0  0
    4.3292   -2.9412   -5.6727 H   0  0  0  0  0  0
    2.6593   -3.2668   -5.1746 H   0  0  0  0  0  0
    3.9661   -4.2797   -4.6131 H   0  0  0  0  0  0
    5.3691   -2.9118   -0.5816 H   0  0  0  0  0  0
    4.3716   -1.5062   -0.8382 H   0  0  0  0  0  0
    5.8284   -1.7345   -1.7990 H   0  0  0  0  0  0
    1.3830   -4.4414   -1.0234 H   0  0  0  0  0  0
    3.2442    3.0103    0.8087 H   0  0  0  0  0  0
  1  2  1  0  0  0
  1 39  1  0  0  0
  1 40  1  0  0  0
  1 41  1  0  0  0
  2  3  1  0  0  0
  2  4  1  0  0  0
  2 42  1  0  0  0
  3 43  1  0  0  0
  3 44  1  0  0  0
  3 45  1  0  0  0
  4 34  1  0  0  0
  4  5  2  0  0  0
  5  6  1  0  0  0
  5 46  1  0  0  0
  6  7  2  0  0  0
  6 47  1  0  0  0
  7  8  1  0  0  0
  7 48  1  0  0  0
  8  9  1  0  0  0
  8 34  2  0  0  0
  9 10  1  0  0  0
  9 49  1  0  0  0
  9 50  1  0  0  0
 10 11  1  0  0  0
 10 51  1  0  0  0
 11 12  1  0  0  0
 11 52  1  0  0  0
 11 53  1  0  0  0
 12 35  1  0  0  0
 12 13  1  0  0  0
 12 14  1  0  0  0
 13 54  1  0  0  0
 14 36  1  0  0  0
 14 33  1  0  0  0
 14 15  1  0  0  0
 15 16  1  0  0  0
 15 55  1  0  0  0
 15 56  1  0  0  0
 16 37  1  0  0  0
 16 17  1  0  0  0
 16 18  1  0  0  0
 17 57  1  0  0  0
 17 58  1  0  0  0
 17 59  1  0  0  0
 18 19  1  0  0  0
 18 60  1  0  0  0
 18 61  1  0  0  0
 19 20  1  0  0  0
 19 62  1  0  0  0
 19 63  1  0  0  0
 20 21  1  0  0  0
 20 64  1  0  0  0
 20 65  1  0  0  0
 21 22  1  0  0  0
 21 66  1  0  0  0
 21 67  1  0  0  0
 22 23  1  0  0  0
 22 68  1  0  0  0
 22 69  1  0  0  0
 23 24  1  0  0  0
 24 25  1  0  0  0
 24 70  1  0  0  0
 24 71  1  0  0  0
 25 26  2  0  0  0
 25 27  1  0  0  0
 27 28  1  0  0  0
 27 29  1  0  0  0
 28 72  1  0  0  0
 28 73  1  0  0  0
 28 74  1  0  0  0
 29 38  1  0  0  0
 29 30  1  0  0  0
 29 31  1  0  0  0
 30 75  1  0  0  0
 30 76  1  0  0  0
 30 77  1  0  0  0
 31 32  2  0  0  0
 31 33  1  0  0  0
 33 78  1  0  0  0
 34 79  1  0  0  0
M  END
> <s_m_source_file>
BACE_34.smi

> <i_m_source_file_index>
1

> <i_lp_mmshare_version>
42013

> <i_f3d_flags>
0

> <s_epik_input>
W0NIM11bQ0hdKFtDSDNdKWMxW2NIXVtjSF1bY0hdYyhbY0hdMSlbQ0gyXVtOSF1bQ0gyXVtDQEBIXShbT0hdKVtDQEBIXTJbQ0gyXVtDQEhdKFtDSDNdKVtDSDJdW0NIMl1bQ0gyXVtDSDJdW0NIMl1PW0NIMl1DKD1PKU4oW0NIM10pW0NAQEhdKFtDSDNdKUMoPU8pW05IXTI=

> <s_epik_cmdline>
J2VwaWtfcHl0aG9uJywgJy1waCcsICc3LjAnLCAnLXRuJywgJzgnLCAnLW1hJywgJzIwMCcsICctaW1hZScsICc8aW5maWxlLm1hZT4nLCAnLW9tYWUnLCAnPG91dGZpbGUubWFlPic=

> <r_epik_Ionization_Penalty>
2.07395

> <r_epik_Ionization_Penalty_Charging>
0

> <r_epik_Ionization_Penalty_Neutral>
2.07395

> <r_epik_State_Penalty>
2.20813

> <r_epik_Charging_Adjusted_Penalty>
2.20813

> <i_epik_Tot_Q>
0

> <i_epik_Tot_abs_Q>
0

> <s_lp_Force_Field>
OPLS_2005

> <r_lp_Energy>
57.2031

> <b_lp_Chiralities_Consistent>
1

> <s_lp_Variant>
BACE_34.smi:1-2

$$$$
