BACE_71.smi:1
                    3D
 Structure written by MMmdl.
 85 88  0  0  1  0            999 V2000
   -2.8790    4.8609    2.6589 C   0  0  0  0  0  0
   -1.4355    4.3392    2.5774 C   0  0  0  0  0  0
   -0.4138    5.4542    2.8488 C   0  0  0  0  0  0
   -1.1633    3.6391    1.2515 C   0  0  0  0  0  0
   -0.8096    2.2724    1.2329 C   0  0  0  0  0  0
   -0.5533    1.6167    0.0104 C   0  0  0  0  0  0
   -0.1572    0.1546   -0.0007 C   0  0  0  0  0  0
    1.3071    0.0224    0.1123 N   0  3  0  0  0  0
    1.7978   -1.3687    0.0486 C   0  0  0  0  0  0
    3.3328   -1.4235    0.2107 C   0  0  1  0  0  0
    3.6102   -1.0099    1.5359 O   0  0  0  0  0  0
    3.9583   -2.8327   -0.0025 C   0  0  2  0  0  0
    5.5113   -2.8103    0.0369 C   0  0  0  0  0  0
    6.1839   -4.1611    0.3665 C   0  0  2  0  0  0
    7.7214   -4.0681    0.4313 C   0  0  0  0  0  0
    8.2735   -5.2478   -0.3815 C   0  0  0  0  0  0
    7.1076   -6.2272   -0.5233 C   0  0  2  0  0  0
    7.2349   -7.1870   -1.7183 C   0  0  0  0  0  0
    6.2152   -8.3393   -1.6666 C   0  0  0  0  0  0
    5.9927   -9.0231   -3.0264 C   0  0  0  0  0  0
    5.0683   -8.2359   -3.9739 C   0  0  0  0  0  0
    3.5873   -8.2867   -3.5560 C   0  0  0  0  0  0
    2.7247   -7.5769   -4.4893 N   0  0  0  0  0  0
    2.6095   -6.1778   -4.4936 C   0  0  0  0  0  0
    1.9176   -5.5859   -5.5694 C   0  0  0  0  0  0
    1.7695   -4.1861   -5.6539 C   0  0  0  0  0  0
    2.3064   -3.3727   -4.6352 C   0  0  0  0  0  0
    2.9855   -3.9451   -3.5386 C   0  0  0  0  0  0
    3.1453   -5.3492   -3.4780 C   0  0  0  0  0  0
    3.5664   -3.0511   -2.4822 C   0  0  0  0  0  0
    4.0469   -1.9589   -2.7840 O   0  0  0  0  0  0
    3.4637   -3.4978   -1.2162 N   0  0  0  0  0  0
    1.0192   -3.5598   -6.8202 C   0  0  0  0  0  0
    1.5148   -2.3566   -7.1115 F   0  0  0  0  0  0
    1.1065   -4.3213   -7.9112 F   0  0  0  0  0  0
   -0.2650   -3.4265   -6.4913 F   0  0  0  0  0  0
    5.9013   -5.2935   -0.6273 C   0  0  0  0  0  0
   -0.6534    2.3308   -1.2013 C   0  0  0  0  0  0
   -1.0062    3.6932   -1.1894 C   0  0  0  0  0  0
   -1.2590    4.3455    0.0322 C   0  0  0  0  0  0
    3.7962   -0.7104   -0.4724 H   0  0  0  0  0  0
    3.6143   -3.4589    0.8222 H   0  0  0  0  0  0
    5.8340   -4.4897    1.3465 H   0  0  0  0  0  0
    7.0344   -6.8027    0.4011 H   0  0  0  0  0  0
   -3.5967    4.0519    2.5183 H   0  0  0  0  0  0
   -3.0779    5.6187    1.9008 H   0  0  0  0  0  0
   -3.0777    5.3101    3.6322 H   0  0  0  0  0  0
   -1.3190    3.6005    3.3718 H   0  0  0  0  0  0
    0.6038    5.0625    2.8444 H   0  0  0  0  0  0
   -0.5847    5.9125    3.8232 H   0  0  0  0  0  0
   -0.4698    6.2436    2.0989 H   0  0  0  0  0  0
   -0.7308    1.7231    2.1599 H   0  0  0  0  0  0
   -0.6410   -0.3676    0.8263 H   0  0  0  0  0  0
   -0.5032   -0.3118   -0.9244 H   0  0  0  0  0  0
    1.7356    0.5486   -0.6357 H   0  0  0  0  0  0
    1.3100   -1.9719    0.8160 H   0  0  0  0  0  0
    1.4919   -1.7746   -0.9152 H   0  0  0  0  0  0
    4.5476   -1.0043    1.6605 H   0  0  0  0  0  0
    5.9088   -2.4170   -0.8992 H   0  0  0  0  0  0
    5.8396   -2.1037    0.7992 H   0  0  0  0  0  0
    8.0961   -3.1260    0.0289 H   0  0  0  0  0  0
    8.0546   -4.1271    1.4681 H   0  0  0  0  0  0
    8.5798   -4.8933   -1.3668 H   0  0  0  0  0  0
    9.1457   -5.7044    0.0875 H   0  0  0  0  0  0
    7.1290   -6.6194   -2.6428 H   0  0  0  0  0  0
    8.2394   -7.6109   -1.7457 H   0  0  0  0  0  0
    6.5703   -9.0782   -0.9473 H   0  0  0  0  0  0
    5.2610   -7.9907   -1.2747 H   0  0  0  0  0  0
    6.9579   -9.1869   -3.5074 H   0  0  0  0  0  0
    5.5694  -10.0155   -2.8668 H   0  0  0  0  0  0
    5.4047   -7.2022   -4.0535 H   0  0  0  0  0  0
    5.1600   -8.6575   -4.9756 H   0  0  0  0  0  0
    3.2573   -9.3255   -3.5325 H   0  0  0  0  0  0
    3.4382   -7.9070   -2.5465 H   0  0  0  0  0  0
    2.3492   -8.0969   -5.2696 H   0  0  0  0  0  0
    1.4988   -6.2142   -6.3422 H   0  0  0  0  0  0
    2.1870   -2.3004   -4.6937 H   0  0  0  0  0  0
    3.6867   -5.7800   -2.6498 H   0  0  0  0  0  0
    3.0296   -4.3998   -1.0821 H   0  0  0  0  0  0
    4.9604   -5.8018   -0.4146 H   0  0  0  0  0  0
    5.8430   -4.8923   -1.6400 H   0  0  0  0  0  0
   -0.4582    1.8376   -2.1424 H   0  0  0  0  0  0
   -1.0823    4.2395   -2.1181 H   0  0  0  0  0  0
   -1.5269    5.3919    0.0285 H   0  0  0  0  0  0
    1.5981    0.4223    0.9932 H   0  0  0  0  0  0
  1  2  1  0  0  0
  1 45  1  0  0  0
  1 46  1  0  0  0
  1 47  1  0  0  0
  2  3  1  0  0  0
  2  4  1  0  0  0
  2 48  1  0  0  0
  3 49  1  0  0  0
  3 50  1  0  0  0
  3 51  1  0  0  0
  4 40  1  0  0  0
  4  5  2  0  0  0
  5  6  1  0  0  0
  5 52  1  0  0  0
  6  7  1  0  0  0
  6 38  2  0  0  0
  7  8  1  0  0  0
  7 53  1  0  0  0
  7 54  1  0  0  0
  8  9  1  0  0  0
  8 55  1  0  0  0
  8 85  1  0  0  0
  9 10  1  0  0  0
  9 56  1  0  0  0
  9 57  1  0  0  0
 10 41  1  0  0  0
 10 11  1  0  0  0
 10 12  1  0  0  0
 11 58  1  0  0  0
 12 42  1  0  0  0
 12 32  1  0  0  0
 12 13  1  0  0  0
 13 14  1  0  0  0
 13 59  1  0  0  0
 13 60  1  0  0  0
 14 43  1  0  0  0
 14 37  1  0  0  0
 14 15  1  0  0  0
 15 16  1  0  0  0
 15 61  1  0  0  0
 15 62  1  0  0  0
 16 17  1  0  0  0
 16 63  1  0  0  0
 16 64  1  0  0  0
 17 44  1  0  0  0
 17 18  1  0  0  0
 17 37  1  0  0  0
 18 19  1  0  0  0
 18 65  1  0  0  0
 18 66  1  0  0  0
 19 20  1  0  0  0
 19 67  1  0  0  0
 19 68  1  0  0  0
 20 21  1  0  0  0
 20 69  1  0  0  0
 20 70  1  0  0  0
 21 22  1  0  0  0
 21 71  1  0  0  0
 21 72  1  0  0  0
 22 23  1  0  0  0
 22 73  1  0  0  0
 22 74  1  0  0  0
 23 24  1  0  0  0
 23 75  1  0  0  0
 24 29  1  0  0  0
 24 25  2  0  0  0
 25 26  1  0  0  0
 25 76  1  0  0  0
 26 27  2  0  0  0
 26 33  1  0  0  0
 27 28  1  0  0  0
 27 77  1  0  0  0
 28 29  2  0  0  0
 28 30  1  0  0  0
 29 78  1  0  0  0
 30 31  2  0  0  0
 30 32  1  0  0  0
 32 79  1  0  0  0
 33 34  1  0  0  0
 33 35  1  0  0  0
 33 36  1  0  0  0
 37 80  1  0  0  0
 37 81  1  0  0  0
 38 39  1  0  0  0
 38 82  1  0  0  0
 39 40  2  0  0  0
 39 83  1  0  0  0
 40 84  1  0  0  0
M  CHG  1   8   1
M  END
> <s_m_source_file>
BACE_71.smi

> <i_m_source_file_index>
1

> <i_lp_mmshare_version>
42013

> <i_f3d_flags>
0

> <s_epik_input>
W0NIM11bQ0hdKFtDSDNdKWMxW2NIXWMoW2NIXVtjSF1bY0hdMSlbQ0gyXVtOSF1bQ0gyXVtDQEBIXShbT0hdKVtDQEhdKFtDSDJdW0NASF0yMylbTkhdQyg9TyljNFtjSF1jKEMoRikoRilGKVtjSF1jKFtjSF00KVtOSF1bQ0gyXVtDSDJdW0NIMl1bQ0gyXVtDSDJdW0NASF0oW0NIMl0zKVtDSDJdW0NIMl0y

> <s_epik_cmdline>
J2VwaWtfcHl0aG9uJywgJy1waCcsICc3LjAnLCAnLXRuJywgJzgnLCAnLW1hJywgJzIwMCcsICctaW1hZScsICc8aW5maWxlLm1hZT4nLCAnLW9tYWUnLCAnPG91dGZpbGUubWFlPic=

> <r_epik_Ionization_Penalty>
0.016475

> <r_epik_Ionization_Penalty_Charging>
0.0164477

> <r_epik_Ionization_Penalty_Neutral>
2.72743e-05

> <r_epik_State_Penalty>
0.0129829

> <r_epik_Charging_Adjusted_Penalty>
0.0294306

> <i_epik_Tot_Q>
1

> <i_epik_Tot_abs_Q>
1

> <s_lp_Force_Field>
OPLS_2005

> <r_lp_Energy>
43.612

> <b_lp_Chiralities_Consistent>
1

> <s_lp_Variant>
BACE_71.smi:1-1

$$$$
BACE_71.smi:1
                    3D
 Structure written by MMmdl.
 84 87  0  0  1  0            999 V2000
   -4.0146    2.9812   -2.3830 C   0  0  0  0  0  0
   -2.6767    3.7304   -2.2825 C   0  0  0  0  0  0
   -1.8806    3.6488   -3.5943 C   0  0  0  0  0  0
   -1.8521    3.2510   -1.0945 C   0  0  0  0  0  0
   -1.3870    1.9185   -1.0312 C   0  0  0  0  0  0
   -0.6218    1.4790    0.0693 C   0  0  0  0  0  0
   -0.1274    0.0468    0.1320 C   0  0  0  0  0  0
    1.3291   -0.0326    0.1536 N   0  0  0  0  0  0
    1.8349   -1.3996    0.2354 C   0  0  0  0  0  0
    3.3765   -1.4136    0.3265 C   0  0  1  0  0  0
    3.6964   -1.0305    1.6516 O   0  0  0  0  0  0
    4.0215   -2.8041    0.0609 C   0  0  2  0  0  0
    5.5753   -2.7613    0.0611 C   0  0  0  0  0  0
    6.2689   -4.1101    0.3521 C   0  0  2  0  0  0
    7.8067   -4.0144    0.3533 C   0  0  0  0  0  0
    8.3311   -5.2466   -0.4002 C   0  0  0  0  0  0
    7.1379   -6.1968   -0.5274 C   0  0  2  0  0  0
    7.2331   -7.1719   -1.7130 C   0  0  0  0  0  0
    6.1764   -8.2898   -1.6494 C   0  0  0  0  0  0
    5.9337   -8.9823   -3.0010 C   0  0  0  0  0  0
    5.0297   -8.1806   -3.9562 C   0  0  0  0  0  0
    3.5462   -8.2004   -3.5448 C   0  0  0  0  0  0
    2.7029   -7.4696   -4.4799 N   0  0  0  0  0  0
    2.5860   -6.0707   -4.4583 C   0  0  0  0  0  0
    1.8716   -5.4609   -5.5093 C   0  0  0  0  0  0
    1.7206   -4.0600   -5.5671 C   0  0  0  0  0  0
    2.2773   -3.2631   -4.5460 C   0  0  0  0  0  0
    2.9796   -3.8537   -3.4740 C   0  0  0  0  0  0
    3.1428   -5.2584   -3.4411 C   0  0  0  0  0  0
    3.5845   -2.9782   -2.4156 C   0  0  0  0  0  0
    4.0732   -1.8884   -2.7126 O   0  0  0  0  0  0
    3.5029   -3.4451   -1.1556 N   0  0  0  0  0  0
    0.9458   -3.4196   -6.7098 C   0  0  0  0  0  0
    1.3771   -2.1802   -6.9462 F   0  0  0  0  0  0
    1.0824   -4.1279   -7.8314 F   0  0  0  0  0  0
   -0.3461   -3.3700   -6.3883 F   0  0  0  0  0  0
    5.9519   -5.2384   -0.6330 C   0  0  0  0  0  0
   -0.3233    2.3772    1.1149 C   0  0  0  0  0  0
   -0.7830    3.7063    1.0572 C   0  0  0  0  0  0
   -1.5448    4.1418   -0.0436 C   0  0  0  0  0  0
    3.7962   -0.6787   -0.3617 H   0  0  0  0  0  0
    3.7089   -3.4569    0.8777 H   0  0  0  0  0  0
    5.9608   -4.4480    1.3428 H   0  0  0  0  0  0
    7.0552   -6.7614    0.4030 H   0  0  0  0  0  0
   -4.5922    3.0863   -1.4641 H   0  0  0  0  0  0
   -3.8673    1.9162   -2.5643 H   0  0  0  0  0  0
   -4.6221    3.3734   -3.1991 H   0  0  0  0  0  0
   -2.9127    4.7827   -2.1180 H   0  0  0  0  0  0
   -0.9581    4.2266   -3.5282 H   0  0  0  0  0  0
   -2.4585    4.0467   -4.4287 H   0  0  0  0  0  0
   -1.6126    2.6208   -3.8399 H   0  0  0  0  0  0
   -1.6164    1.2299   -1.8311 H   0  0  0  0  0  0
   -0.5429   -0.4183    1.0267 H   0  0  0  0  0  0
   -0.5196   -0.5098   -0.7201 H   0  0  0  0  0  0
    1.6848    0.4998    0.9415 H   0  0  0  0  0  0
    1.4053   -1.9198    1.0928 H   0  0  0  0  0  0
    1.4989   -1.9406   -0.6486 H   0  0  0  0  0  0
    4.6361   -0.9642    1.7259 H   0  0  0  0  0  0
    5.9441   -2.3482   -0.8780 H   0  0  0  0  0  0
    5.9157   -2.0638    0.8261 H   0  0  0  0  0  0
    8.1584   -3.1040   -0.1339 H   0  0  0  0  0  0
    8.1818   -3.9936    1.3771 H   0  0  0  0  0  0
    8.6715   -4.9431   -1.3914 H   0  0  0  0  0  0
    9.1765   -5.7129    0.1066 H   0  0  0  0  0  0
    7.1445   -6.6105   -2.6434 H   0  0  0  0  0  0
    8.2233   -7.6286   -1.7365 H   0  0  0  0  0  0
    6.5064   -9.0309   -0.9206 H   0  0  0  0  0  0
    5.2330   -7.9061   -1.2644 H   0  0  0  0  0  0
    6.8937   -9.1760   -3.4807 H   0  0  0  0  0  0
    5.4851   -9.9617   -2.8305 H   0  0  0  0  0  0
    5.3865   -7.1539   -4.0396 H   0  0  0  0  0  0
    5.1173   -8.6087   -4.9554 H   0  0  0  0  0  0
    3.1943   -9.2320   -3.5257 H   0  0  0  0  0  0
    3.4015   -7.8208   -2.5345 H   0  0  0  0  0  0
    2.2990   -7.9818   -5.2512 H   0  0  0  0  0  0
    1.4370   -6.0754   -6.2844 H   0  0  0  0  0  0
    2.1568   -2.1898   -4.5819 H   0  0  0  0  0  0
    3.7044   -5.7018   -2.6331 H   0  0  0  0  0  0
    3.0550   -4.3409   -1.0268 H   0  0  0  0  0  0
    5.0024   -5.7244   -0.4078 H   0  0  0  0  0  0
    5.8929   -4.8407   -1.6472 H   0  0  0  0  0  0
    0.2608    2.0490    1.9623 H   0  0  0  0  0  0
   -0.5505    4.3926    1.8580 H   0  0  0  0  0  0
   -1.8913    5.1644   -0.0755 H   0  0  0  0  0  0
  1  2  1  0  0  0
  1 45  1  0  0  0
  1 46  1  0  0  0
  1 47  1  0  0  0
  2  3  1  0  0  0
  2  4  1  0  0  0
  2 48  1  0  0  0
  3 49  1  0  0  0
  3 50  1  0  0  0
  3 51  1  0  0  0
  4 40  1  0  0  0
  4  5  2  0  0  0
  5  6  1  0  0  0
  5 52  1  0  0  0
  6  7  1  0  0  0
  6 38  2  0  0  0
  7  8  1  0  0  0
  7 53  1  0  0  0
  7 54  1  0  0  0
  8  9  1  0  0  0
  8 55  1  0  0  0
  9 10  1  0  0  0
  9 56  1  0  0  0
  9 57  1  0  0  0
 10 41  1  0  0  0
 10 11  1  0  0  0
 10 12  1  0  0  0
 11 58  1  0  0  0
 12 42  1  0  0  0
 12 32  1  0  0  0
 12 13  1  0  0  0
 13 14  1  0  0  0
 13 59  1  0  0  0
 13 60  1  0  0  0
 14 43  1  0  0  0
 14 37  1  0  0  0
 14 15  1  0  0  0
 15 16  1  0  0  0
 15 61  1  0  0  0
 15 62  1  0  0  0
 16 17  1  0  0  0
 16 63  1  0  0  0
 16 64  1  0  0  0
 17 44  1  0  0  0
 17 18  1  0  0  0
 17 37  1  0  0  0
 18 19  1  0  0  0
 18 65  1  0  0  0
 18 66  1  0  0  0
 19 20  1  0  0  0
 19 67  1  0  0  0
 19 68  1  0  0  0
 20 21  1  0  0  0
 20 69  1  0  0  0
 20 70  1  0  0  0
 21 22  1  0  0  0
 21 71  1  0  0  0
 21 72  1  0  0  0
 22 23  1  0  0  0
 22 73  1  0  0  0
 22 74  1  0  0  0
 23 24  1  0  0  0
 23 75  1  0  0  0
 24 29  1  0  0  0
 24 25  2  0  0  0
 25 26  1  0  0  0
 25 76  1  0  0  0
 26 27  2  0  0  0
 26 33  1  0  0  0
 27 28  1  0  0  0
 27 77  1  0  0  0
 28 29  2  0  0  0
 28 30  1  0  0  0
 29 78  1  0  0  0
 30 31  2  0  0  0
 30 32  1  0  0  0
 32 79  1  0  0  0
 33 34  1  0  0  0
 33 35  1  0  0  0
 33 36  1  0  0  0
 37 80  1  0  0  0
 37 81  1  0  0  0
 38 39  1  0  0  0
 38 82  1  0  0  0
 39 40  2  0  0  0
 39 83  1  0  0  0
 40 84  1  0  0  0
M  END
> <s_m_source_file>
BACE_71.smi

> <i_m_source_file_index>
1

> <i_lp_mmshare_version>
42013

> <i_f3d_flags>
0

> <s_epik_input>
W0NIM11bQ0hdKFtDSDNdKWMxW2NIXWMoW2NIXVtjSF1bY0hdMSlbQ0gyXVtOSF1bQ0gyXVtDQEBIXShbT0hdKVtDQEhdKFtDSDJdW0NASF0yMylbTkhdQyg9TyljNFtjSF1jKEMoRikoRilGKVtjSF1jKFtjSF00KVtOSF1bQ0gyXVtDSDJdW0NIMl1bQ0gyXVtDSDJdW0NASF0oW0NIMl0zKVtDSDJdW0NIMl0y

> <s_epik_cmdline>
J2VwaWtfcHl0aG9uJywgJy1waCcsICc3LjAnLCAnLXRuJywgJzgnLCAnLW1hJywgJzIwMCcsICctaW1hZScsICc8aW5maWxlLm1hZT4nLCAnLW9tYWUnLCAnPG91dGZpbGUubWFlPic=

> <r_epik_Ionization_Penalty>
2.13179

> <r_epik_Ionization_Penalty_Charging>
0

> <r_epik_Ionization_Penalty_Neutral>
2.13179

> <r_epik_State_Penalty>
2.27019

> <r_epik_Charging_Adjusted_Penalty>
2.27019

> <i_epik_Tot_Q>
0

> <i_epik_Tot_abs_Q>
0

> <s_lp_Force_Field>
OPLS_2005

> <r_lp_Energy>
53.0594

> <b_lp_Chiralities_Consistent>
1

> <s_lp_Variant>
BACE_71.smi:1-2

$$$$
