BACE_155.smi:1
                    3D
 Structure written by MMmdl.
 75 77  0  0  1  0            999 V2000
   -2.1861    2.8445    3.2284 C   0  0  0  0  0  0
   -1.9955    2.4483    1.7607 C   0  0  0  0  0  0
   -2.6921    1.1213    1.4127 C   0  0  0  0  0  0
   -2.4675    0.6685   -0.0423 C   0  0  0  0  0  0
   -1.0590    0.4077   -0.3172 N   0  0  0  0  0  0
   -0.4019   -0.7096    0.0299 C   0  0  0  0  0  0
   -0.9506   -1.6840    0.5457 O   0  0  0  0  0  0
    1.1154   -0.7104   -0.2054 C   0  0  2  0  0  0
    1.5167   -1.8916   -1.1055 C   0  0  0  0  0  0
    1.8957   -0.7415    1.1307 C   0  0  0  0  0  0
    1.6594    0.4741    2.0600 C   0  0  2  0  0  0
    2.1528    1.6442    1.4351 O   0  0  0  0  0  0
    2.2706    0.3249    3.4751 C   0  0  2  0  0  0
    1.9491    1.5190    4.4045 C   0  0  0  0  0  0
    2.6611    1.4624    5.7483 C   0  0  0  0  0  0
    2.2397    0.5438    6.7312 C   0  0  0  0  0  0
    2.8922    0.4946    7.9775 C   0  0  0  0  0  0
    3.9669    1.3635    8.2470 C   0  0  0  0  0  0
    4.4040    2.2796    7.2661 C   0  0  0  0  0  0
    5.5517    3.2367    7.5565 C   0  0  0  0  0  0
    6.8416    2.5681    8.0760 C   0  0  0  0  0  0
    7.4394    1.4880    7.1573 C   0  0  0  0  0  0
    7.9565    2.0413    5.8165 C   0  0  0  0  0  0
    8.6075    1.0215    5.0039 N   0  0  0  0  0  0
    7.8818    0.0082    4.3614 C   0  0  0  0  0  0
    6.4703    0.0144    4.2782 C   0  0  0  0  0  0
    5.8153   -1.0579    3.6321 C   0  0  0  0  0  0
    6.6028   -2.0994    3.0988 C   0  0  0  0  0  0
    8.0044   -2.0116    3.2200 C   0  0  0  0  0  0
    8.9023   -3.0946    2.6596 C   0  0  0  0  0  0
    8.6307   -0.9836    3.8332 N   0  0  0  0  0  0
    4.3187   -1.1167    3.5624 C   0  0  0  0  0  0
    3.7231   -2.1936    3.5936 O   0  0  0  0  0  0
    3.7121    0.0743    3.4316 N   0  0  0  0  0  0
    3.7451    2.3254    6.0185 C   0  0  0  0  0  0
    1.3806    0.2044   -0.7383 H   0  0  0  0  0  0
    0.5882    0.6154    2.1988 H   0  0  0  0  0  0
    1.7971   -0.5449    3.9345 H   0  0  0  0  0  0
   -1.6927    3.7929    3.4415 H   0  0  0  0  0  0
   -1.7637    2.0932    3.8962 H   0  0  0  0  0  0
   -3.2427    2.9562    3.4730 H   0  0  0  0  0  0
   -2.3820    3.2407    1.1192 H   0  0  0  0  0  0
   -0.9277    2.3803    1.5531 H   0  0  0  0  0  0
   -2.3517    0.3401    2.0937 H   0  0  0  0  0  0
   -3.7636    1.2252    1.5875 H   0  0  0  0  0  0
   -3.0595   -0.2231   -0.2548 H   0  0  0  0  0  0
   -2.8160    1.4392   -0.7302 H   0  0  0  0  0  0
   -0.5292    1.1578   -0.7377 H   0  0  0  0  0  0
    0.9484   -1.8935   -2.0366 H   0  0  0  0  0  0
    1.3502   -2.8492   -0.6105 H   0  0  0  0  0  0
    2.5731   -1.8372   -1.3697 H   0  0  0  0  0  0
    1.6356   -1.6537    1.6702 H   0  0  0  0  0  0
    2.9607   -0.8254    0.9107 H   0  0  0  0  0  0
    3.0854    1.5486    1.3160 H   0  0  0  0  0  0
    2.2155    2.4582    3.9186 H   0  0  0  0  0  0
    0.8737    1.5701    4.5795 H   0  0  0  0  0  0
    1.4143   -0.1238    6.5316 H   0  0  0  0  0  0
    2.5648   -0.2073    8.7304 H   0  0  0  0  0  0
    4.4510    1.3232    9.2115 H   0  0  0  0  0  0
    5.7775    3.8141    6.6595 H   0  0  0  0  0  0
    5.2024    3.9605    8.2934 H   0  0  0  0  0  0
    7.5922    3.3384    8.2555 H   0  0  0  0  0  0
    6.6447    2.1226    9.0512 H   0  0  0  0  0  0
    8.2694    1.0135    7.6820 H   0  0  0  0  0  0
    6.7057    0.6990    6.9922 H   0  0  0  0  0  0
    7.1550    2.5124    5.2478 H   0  0  0  0  0  0
    8.6901    2.8246    6.0084 H   0  0  0  0  0  0
    9.6125    0.9374    5.0580 H   0  0  0  0  0  0
    5.8909    0.8135    4.7147 H   0  0  0  0  0  0
    6.1443   -2.9454    2.6066 H   0  0  0  0  0  0
    8.3190   -3.9156    2.2416 H   0  0  0  0  0  0
    9.5445   -3.4990    3.4424 H   0  0  0  0  0  0
    9.5350   -2.6897    1.8695 H   0  0  0  0  0  0
    4.3057    0.8897    3.3847 H   0  0  0  0  0  0
    4.0699    3.0284    5.2652 H   0  0  0  0  0  0
  1  2  1  0  0  0
  1 39  1  0  0  0
  1 40  1  0  0  0
  1 41  1  0  0  0
  2  3  1  0  0  0
  2 42  1  0  0  0
  2 43  1  0  0  0
  3  4  1  0  0  0
  3 44  1  0  0  0
  3 45  1  0  0  0
  4  5  1  0  0  0
  4 46  1  0  0  0
  4 47  1  0  0  0
  5  6  1  0  0  0
  5 48  1  0  0  0
  6  7  2  0  0  0
  6  8  1  0  0  0
  8 36  1  0  0  0
  8  9  1  0  0  0
  8 10  1  0  0  0
  9 49  1  0  0  0
  9 50  1  0  0  0
  9 51  1  0  0  0
 10 11  1  0  0  0
 10 52  1  0  0  0
 10 53  1  0  0  0
 11 37  1  0  0  0
 11 12  1  0  0  0
 11 13  1  0  0  0
 12 54  1  0  0  0
 13 38  1  0  0  0
 13 34  1  0  0  0
 13 14  1  0  0  0
 14 15  1  0  0  0
 14 55  1  0  0  0
 14 56  1  0  0  0
 15 35  1  0  0  0
 15 16  2  0  0  0
 16 17  1  0  0  0
 16 57  1  0  0  0
 17 18  2  0  0  0
 17 58  1  0  0  0
 18 19  1  0  0  0
 18 59  1  0  0  0
 19 20  1  0  0  0
 19 35  2  0  0  0
 20 21  1  0  0  0
 20 60  1  0  0  0
 20 61  1  0  0  0
 21 22  1  0  0  0
 21 62  1  0  0  0
 21 63  1  0  0  0
 22 23  1  0  0  0
 22 64  1  0  0  0
 22 65  1  0  0  0
 23 24  1  0  0  0
 23 66  1  0  0  0
 23 67  1  0  0  0
 24 25  1  0  0  0
 24 68  1  0  0  0
 25 31  1  0  0  0
 25 26  2  0  0  0
 26 27  1  0  0  0
 26 69  1  0  0  0
 27 28  2  0  0  0
 27 32  1  0  0  0
 28 29  1  0  0  0
 28 70  1  0  0  0
 29 30  1  0  0  0
 29 31  2  0  0  0
 30 71  1  0  0  0
 30 72  1  0  0  0
 30 73  1  0  0  0
 32 33  2  0  0  0
 32 34  1  0  0  0
 34 74  1  0  0  0
 35 75  1  0  0  0
M  END
> <s_m_source_file>
BACE_155.smi

> <i_m_source_file_index>
1

> <i_lp_mmshare_version>
42013

> <i_f3d_flags>
0

> <s_epik_input>
W0NIM11bQ0gyXVtDSDJdW0NIMl1bTkhdQyg9TylbQ0BIXShbQ0gzXSlbQ0gyXVtDQEhdKFtPSF0pW0NASF0oW0NIMl0xKVtOSF1DKD1PKWMoW2NIXWMobjIpW0NIM10pW2NIXWMyW05IXVtDSDJdW0NIMl1bQ0gyXVtDSDJdYyhbY0hdMylbY0hdW2NIXVtjSF1jMTM=

> <s_epik_cmdline>
J2VwaWtfcHl0aG9uJywgJy1waCcsICc3LjAnLCAnLXRuJywgJzgnLCAnLW1hJywgJzIwMCcsICctaW1hZScsICc8aW5maWxlLm1hZT4nLCAnLW9tYWUnLCAnPG91dGZpbGUubWFlPic=

> <r_lp_tautomer_probability>
1

> <r_epik_Ionization_Penalty>
0.0136727

> <r_epik_Ionization_Penalty_Charging>
0

> <r_epik_Ionization_Penalty_Neutral>
0.0136727

> <r_epik_State_Penalty>
0.0106346

> <r_epik_Charging_Adjusted_Penalty>
0.0106346

> <i_epik_Tot_Q>
0

> <i_epik_Tot_abs_Q>
0

> <s_lp_Force_Field>
OPLS_2005

> <r_lp_Energy>
15.8259

> <b_lp_Chiralities_Consistent>
1

> <s_lp_Variant>
BACE_155.smi:1-1

$$$$
BACE_155.smi:1
                    3D
 Structure written by MMmdl.
 76 78  0  0  1  0            999 V2000
   -2.3350    1.2795    4.0314 C   0  0  0  0  0  0
   -1.4726    1.7525    2.8559 C   0  0  0  0  0  0
   -2.1480    1.5115    1.4949 C   0  0  0  0  0  0
   -1.3991    2.1437    0.3070 C   0  0  0  0  0  0
   -0.0373    1.6390    0.1763 N   0  0  0  0  0  0
    0.3099    0.4950   -0.4324 C   0  0  0  0  0  0
   -0.4994   -0.2511   -0.9843 O   0  0  0  0  0  0
    1.8000    0.1240   -0.3870 C   0  0  2  0  0  0
    2.3572   -0.0246   -1.8131 C   0  0  0  0  0  0
    2.0463   -1.1615    0.4399 C   0  0  0  0  0  0
    1.5548   -1.1084    1.9075 C   0  0  2  0  0  0
    2.2437   -0.0559    2.5577 O   0  0  0  0  0  0
    1.8150   -2.4180    2.6993 C   0  0  2  0  0  0
    1.2606   -3.6974    2.0142 C   0  0  0  0  0  0
    1.1889   -4.9328    2.9083 C   0  0  0  0  0  0
   -0.0238   -5.6422    3.0346 C   0  0  0  0  0  0
   -0.0954   -6.7826    3.8569 C   0  0  0  0  0  0
    1.0419   -7.2170    4.5635 C   0  0  0  0  0  0
    2.2553   -6.5045    4.4622 C   0  0  0  0  0  0
    3.4919   -6.9641    5.2209 C   0  0  0  0  0  0
    3.2950   -7.1976    6.7341 C   0  0  0  0  0  0
    2.8324   -5.9639    7.5362 C   0  0  0  0  0  0
    1.3440   -6.0187    7.9271 C   0  0  0  0  0  0
    0.9122   -4.8421    8.6719 N   0  0  0  0  0  0
    0.3475   -3.7586    7.9841 C   0  0  0  0  0  0
    0.5458   -3.5105    6.6080 C   0  0  0  0  0  0
   -0.0834   -2.4047    5.9939 C   0  0  0  0  0  0
   -0.9193   -1.5756    6.7725 C   0  0  0  0  0  0
   -1.0753   -1.8555    8.1464 C   0  0  0  0  0  0
   -1.9476   -1.0070    9.0468 C   0  0  0  0  0  0
   -0.4423   -2.9197    8.6912 N   0  3  0  0  0  0
    0.0926   -2.1624    4.5276 C   0  0  0  0  0  0
   -0.8645   -1.8618    3.8163 O   0  0  0  0  0  0
    1.3529   -2.3254    4.0881 N   0  0  0  0  0  0
    2.3266   -5.3734    3.6200 C   0  0  0  0  0  0
    2.3417    0.9460    0.0839 H   0  0  0  0  0  0
    0.4905   -0.8806    1.9184 H   0  0  0  0  0  0
    2.8953   -2.5491    2.7759 H   0  0  0  0  0  0
   -1.8157    1.4268    4.9782 H   0  0  0  0  0  0
   -2.5774    0.2207    3.9444 H   0  0  0  0  0  0
   -3.2731    1.8334    4.0772 H   0  0  0  0  0  0
   -1.2601    2.8152    2.9773 H   0  0  0  0  0  0
   -0.5112    1.2393    2.8889 H   0  0  0  0  0  0
   -2.2624    0.4392    1.3308 H   0  0  0  0  0  0
   -3.1582    1.9214    1.5203 H   0  0  0  0  0  0
   -1.9526    1.9738   -0.6181 H   0  0  0  0  0  0
   -1.3485    3.2250    0.4369 H   0  0  0  0  0  0
    0.6943    2.1859    0.6071 H   0  0  0  0  0  0
    2.1733    0.8714   -2.4076 H   0  0  0  0  0  0
    1.9059   -0.8693   -2.3355 H   0  0  0  0  0  0
    3.4349   -0.1873   -1.7947 H   0  0  0  0  0  0
    1.5622   -1.9914   -0.0756 H   0  0  0  0  0  0
    3.1125   -1.3920    0.4304 H   0  0  0  0  0  0
    3.1703   -0.2389    2.5277 H   0  0  0  0  0  0
    0.2606   -3.4892    1.6315 H   0  0  0  0  0  0
    1.8688   -3.9500    1.1453 H   0  0  0  0  0  0
   -0.9040   -5.3169    2.4992 H   0  0  0  0  0  0
   -1.0245   -7.3267    3.9438 H   0  0  0  0  0  0
    0.9754   -8.0965    5.1868 H   0  0  0  0  0  0
    3.8417   -7.8874    4.7577 H   0  0  0  0  0  0
    4.2919   -6.2368    5.0766 H   0  0  0  0  0  0
    2.6160   -8.0340    6.9034 H   0  0  0  0  0  0
    4.2534   -7.5256    7.1384 H   0  0  0  0  0  0
    3.4202   -5.9062    8.4534 H   0  0  0  0  0  0
    3.0622   -5.0514    6.9852 H   0  0  0  0  0  0
    0.7135   -6.1546    7.0491 H   0  0  0  0  0  0
    1.1687   -6.8908    8.5573 H   0  0  0  0  0  0
    0.6609   -4.9730    9.6412 H   0  0  0  0  0  0
    1.1635   -4.1670    6.0145 H   0  0  0  0  0  0
   -1.4291   -0.7344    6.3245 H   0  0  0  0  0  0
   -2.1296   -0.0279    8.6025 H   0  0  0  0  0  0
   -1.4706   -0.8558   10.0159 H   0  0  0  0  0  0
   -2.9095   -1.4940    9.2085 H   0  0  0  0  0  0
    2.0513   -2.5265    4.7888 H   0  0  0  0  0  0
    3.2573   -4.8333    3.5253 H   0  0  0  0  0  0
   -0.5805   -3.1044    9.6850 H   0  0  0  0  0  0
  1  2  1  0  0  0
  1 39  1  0  0  0
  1 40  1  0  0  0
  1 41  1  0  0  0
  2  3  1  0  0  0
  2 42  1  0  0  0
  2 43  1  0  0  0
  3  4  1  0  0  0
  3 44  1  0  0  0
  3 45  1  0  0  0
  4  5  1  0  0  0
  4 46  1  0  0  0
  4 47  1  0  0  0
  5  6  1  0  0  0
  5 48  1  0  0  0
  6  7  2  0  0  0
  6  8  1  0  0  0
  8 36  1  0  0  0
  8  9  1  0  0  0
  8 10  1  0  0  0
  9 49  1  0  0  0
  9 50  1  0  0  0
  9 51  1  0  0  0
 10 11  1  0  0  0
 10 52  1  0  0  0
 10 53  1  0  0  0
 11 37  1  0  0  0
 11 12  1  0  0  0
 11 13  1  0  0  0
 12 54  1  0  0  0
 13 38  1  0  0  0
 13 34  1  0  0  0
 13 14  1  0  0  0
 14 15  1  0  0  0
 14 55  1  0  0  0
 14 56  1  0  0  0
 15 35  1  0  0  0
 15 16  2  0  0  0
 16 17  1  0  0  0
 16 57  1  0  0  0
 17 18  2  0  0  0
 17 58  1  0  0  0
 18 19  1  0  0  0
 18 59  1  0  0  0
 19 20  1  0  0  0
 19 35  2  0  0  0
 20 21  1  0  0  0
 20 60  1  0  0  0
 20 61  1  0  0  0
 21 22  1  0  0  0
 21 62  1  0  0  0
 21 63  1  0  0  0
 22 23  1  0  0  0
 22 64  1  0  0  0
 22 65  1  0  0  0
 23 24  1  0  0  0
 23 66  1  0  0  0
 23 67  1  0  0  0
 24 25  1  0  0  0
 24 68  1  0  0  0
 25 31  1  0  0  0
 25 26  2  0  0  0
 26 27  1  0  0  0
 26 69  1  0  0  0
 27 28  2  0  0  0
 27 32  1  0  0  0
 28 29  1  0  0  0
 28 70  1  0  0  0
 29 30  1  0  0  0
 29 31  2  0  0  0
 30 71  1  0  0  0
 30 72  1  0  0  0
 30 73  1  0  0  0
 31 76  1  0  0  0
 32 33  2  0  0  0
 32 34  1  0  0  0
 34 74  1  0  0  0
 35 75  1  0  0  0
M  CHG  1  31   1
M  END
> <s_m_source_file>
BACE_155.smi

> <i_m_source_file_index>
1

> <i_lp_mmshare_version>
42013

> <i_f3d_flags>
0

> <s_epik_input>
W0NIM11bQ0gyXVtDSDJdW0NIMl1bTkhdQyg9TylbQ0BIXShbQ0gzXSlbQ0gyXVtDQEhdKFtPSF0pW0NASF0oW0NIMl0xKVtOSF1DKD1PKWMoW2NIXWMobjIpW0NIM10pW2NIXWMyW05IXVtDSDJdW0NIMl1bQ0gyXVtDSDJdYyhbY0hdMylbY0hdW2NIXVtjSF1jMTM=

> <s_epik_cmdline>
J2VwaWtfcHl0aG9uJywgJy1waCcsICc3LjAnLCAnLXRuJywgJzgnLCAnLW1hJywgJzIwMCcsICctaW1hZScsICc8aW5maWxlLm1hZT4nLCAnLW9tYWUnLCAnPG91dGZpbGUubWFlPic=

> <r_lp_tautomer_probability>
0.999994

> <r_epik_Ionization_Penalty>
2.24085

> <r_epik_Ionization_Penalty_Charging>
2.24084

> <r_epik_Ionization_Penalty_Neutral>
5.37547e-06

> <r_epik_State_Penalty>
2.38723

> <r_epik_Charging_Adjusted_Penalty>
4.62807

> <i_epik_Tot_Q>
1

> <i_epik_Tot_abs_Q>
1

> <s_lp_Force_Field>
OPLS_2005

> <r_lp_Energy>
23.2635

> <b_lp_Chiralities_Consistent>
1

> <s_lp_Variant>
BACE_155.smi:1-2

$$$$
