BACE_7.smi:1
                    3D
 Structure written by MMmdl.
 99103  0  0  1  0            999 V2000
   -2.2199    6.2863   -0.7884 C   0  0  0  0  0  0
   -3.5380    5.8111   -1.4190 C   0  0  0  0  0  0
   -4.6375    5.6247   -0.3615 C   0  0  0  0  0  0
   -3.3375    4.5513   -2.2519 C   0  0  0  0  0  0
   -2.9264    3.3451   -1.6434 C   0  0  0  0  0  0
   -2.7349    2.1819   -2.4174 C   0  0  0  0  0  0
   -2.2793    0.8990   -1.7529 C   0  0  0  0  0  0
   -0.8091    0.8754   -1.6406 N   0  3  0  0  0  0
   -0.2751   -0.3068   -0.9360 C   0  0  0  0  0  0
    1.2597   -0.2421   -0.8264 C   0  0  1  0  0  0
    1.5952    0.8346    0.0293 O   0  0  0  0  0  0
    1.8799   -1.5575   -0.2963 C   0  0  2  0  0  0
    1.5913   -1.8634    1.1979 C   0  0  0  0  0  0
    2.1434   -3.2217    1.7026 C   0  0  2  0  0  0
    1.2866   -4.3986    1.2036 C   0  0  0  0  0  0
    2.2940   -3.2278    3.2399 C   0  0  0  0  0  0
    3.1098   -4.4035    3.8224 C   0  0  0  0  0  0
    4.5466   -4.5635    3.2807 C   0  0  0  0  0  0
    5.4246   -3.3119    3.4442 C   0  0  0  0  0  0
    6.8936   -3.5548    3.0304 C   0  0  0  0  0  0
    7.7142   -2.3231    2.9855 N   0  0  0  0  0  0
    8.4461   -1.9805    4.2315 C   0  0  2  0  0  0
    9.7939   -2.7281    4.2945 C   0  0  0  0  0  0
    7.6137   -2.0735    5.5110 C   0  0  0  0  0  0
    6.7598   -1.0006    5.8515 C   0  0  0  0  0  0
    5.9670   -1.0577    7.0137 C   0  0  0  0  0  0
    6.0209   -2.1902    7.8472 C   0  0  0  0  0  0
    6.8675   -3.2649    7.5168 C   0  0  0  0  0  0
    7.6608   -3.2083    6.3546 C   0  0  0  0  0  0
    7.9781   -1.6243    1.8428 C   0  0  0  0  0  0
    8.7226   -0.6435    1.8088 O   0  0  0  0  0  0
    7.4096   -2.0997    0.5355 C   0  0  0  0  0  0
    6.0303   -2.0059    0.2613 C   0  0  0  0  0  0
    5.5058   -2.4465   -0.9769 C   0  0  0  0  0  0
    6.3875   -2.9654   -1.9497 C   0  0  0  0  0  0
    7.7751   -3.0354   -1.7005 C   0  0  0  0  0  0
    8.2791   -2.5979   -0.4566 C   0  0  0  0  0  0
    8.6756   -3.5694   -2.7185 C   0  0  0  0  0  0
    8.3828   -3.9791   -3.9533 N   0  0  0  0  0  0
    9.5892   -4.3946   -4.4968 C   0  0  0  0  0  0
   10.5642   -4.2133   -3.5522 C   0  0  0  0  0  0
    9.9996   -3.6910   -2.4209 O   0  0  0  0  0  0
    4.0240   -2.4417   -1.2296 C   0  0  0  0  0  0
    3.5118   -3.2341   -2.0202 O   0  0  0  0  0  0
    3.3248   -1.5417   -0.5193 N   0  0  0  0  0  0
   -2.9575    2.2232   -3.8091 C   0  0  0  0  0  0
   -3.3697    3.4221   -4.4211 C   0  0  0  0  0  0
   -3.5587    4.5821   -3.6457 C   0  0  0  0  0  0
    1.6695   -0.0341   -1.8165 H   0  0  0  0  0  0
    1.4432   -2.3626   -0.8881 H   0  0  0  0  0  0
    3.1430   -3.3493    1.2963 H   0  0  0  0  0  0
    8.7139   -0.9228    4.2045 H   0  0  0  0  0  0
   -1.4646    6.4711   -1.5528 H   0  0  0  0  0  0
   -1.8171    5.5499   -0.0928 H   0  0  0  0  0  0
   -2.3633    7.2160   -0.2374 H   0  0  0  0  0  0
   -3.8738    6.6019   -2.0911 H   0  0  0  0  0  0
   -5.5806    5.3335   -0.8249 H   0  0  0  0  0  0
   -4.8127    6.5509    0.1866 H   0  0  0  0  0  0
   -4.3732    4.8575    0.3666 H   0  0  0  0  0  0
   -2.7524    3.3115   -0.5778 H   0  0  0  0  0  0
   -2.7283    0.8242   -0.7616 H   0  0  0  0  0  0
   -2.6212    0.0376   -2.3285 H   0  0  0  0  0  0
   -0.4127    0.9097   -2.5688 H   0  0  0  0  0  0
   -0.7318   -0.3771    0.0519 H   0  0  0  0  0  0
   -0.5717   -1.1982   -1.4901 H   0  0  0  0  0  0
    2.5370    0.9072    0.0674 H   0  0  0  0  0  0
    2.0288   -1.0638    1.7966 H   0  0  0  0  0  0
    0.5200   -1.8219    1.3940 H   0  0  0  0  0  0
    0.2702   -4.3425    1.5943 H   0  0  0  0  0  0
    1.7068   -5.3567    1.5081 H   0  0  0  0  0  0
    1.2244   -4.4147    0.1160 H   0  0  0  0  0  0
    2.7656   -2.2994    3.5626 H   0  0  0  0  0  0
    1.3042   -3.2202    3.6976 H   0  0  0  0  0  0
    3.1599   -4.2798    4.9048 H   0  0  0  0  0  0
    2.5687   -5.3364    3.6648 H   0  0  0  0  0  0
    5.0170   -5.3947    3.8070 H   0  0  0  0  0  0
    4.5218   -4.8607    2.2322 H   0  0  0  0  0  0
    5.0002   -2.4913    2.8740 H   0  0  0  0  0  0
    5.3724   -2.9993    4.4845 H   0  0  0  0  0  0
    7.3434   -4.2648    3.7245 H   0  0  0  0  0  0
    6.9212   -4.0757    2.0735 H   0  0  0  0  0  0
   10.3687   -2.4257    5.1704 H   0  0  0  0  0  0
   10.4041   -2.5115    3.4173 H   0  0  0  0  0  0
    9.6631   -3.8092    4.3357 H   0  0  0  0  0  0
    6.7058   -0.1291    5.2155 H   0  0  0  0  0  0
    5.3161   -0.2332    7.2642 H   0  0  0  0  0  0
    5.4130   -2.2352    8.7385 H   0  0  0  0  0  0
    6.9065   -4.1354    8.1550 H   0  0  0  0  0  0
    8.2945   -4.0492    6.1183 H   0  0  0  0  0  0
    5.3766   -1.5877    1.0095 H   0  0  0  0  0  0
    5.9967   -3.3160   -2.8944 H   0  0  0  0  0  0
    9.3390   -2.6490   -0.2527 H   0  0  0  0  0  0
    9.6585   -4.7828   -5.5021 H   0  0  0  0  0  0
   11.6289   -4.3920   -3.5278 H   0  0  0  0  0  0
    3.8561   -0.9103    0.0626 H   0  0  0  0  0  0
   -2.8122    1.3385   -4.4116 H   0  0  0  0  0  0
   -3.5401    3.4534   -5.4874 H   0  0  0  0  0  0
   -3.8731    5.4962   -4.1282 H   0  0  0  0  0  0
   -0.5158    1.6996   -1.1355 H   0  0  0  0  0  0
  1  2  1  0  0  0
  1 53  1  0  0  0
  1 54  1  0  0  0
  1 55  1  0  0  0
  2  3  1  0  0  0
  2  4  1  0  0  0
  2 56  1  0  0  0
  3 57  1  0  0  0
  3 58  1  0  0  0
  3 59  1  0  0  0
  4 48  1  0  0  0
  4  5  2  0  0  0
  5  6  1  0  0  0
  5 60  1  0  0  0
  6  7  1  0  0  0
  6 46  2  0  0  0
  7  8  1  0  0  0
  7 61  1  0  0  0
  7 62  1  0  0  0
  8  9  1  0  0  0
  8 63  1  0  0  0
  8 99  1  0  0  0
  9 10  1  0  0  0
  9 64  1  0  0  0
  9 65  1  0  0  0
 10 49  1  0  0  0
 10 11  1  0  0  0
 10 12  1  0  0  0
 11 66  1  0  0  0
 12 50  1  0  0  0
 12 45  1  0  0  0
 12 13  1  0  0  0
 13 14  1  0  0  0
 13 67  1  0  0  0
 13 68  1  0  0  0
 14 51  1  0  0  0
 14 15  1  0  0  0
 14 16  1  0  0  0
 15 69  1  0  0  0
 15 70  1  0  0  0
 15 71  1  0  0  0
 16 17  1  0  0  0
 16 72  1  0  0  0
 16 73  1  0  0  0
 17 18  1  0  0  0
 17 74  1  0  0  0
 17 75  1  0  0  0
 18 19  1  0  0  0
 18 76  1  0  0  0
 18 77  1  0  0  0
 19 20  1  0  0  0
 19 78  1  0  0  0
 19 79  1  0  0  0
 20 21  1  0  0  0
 20 80  1  0  0  0
 20 81  1  0  0  0
 21 22  1  0  0  0
 21 30  1  0  0  0
 22 52  1  0  0  0
 22 23  1  0  0  0
 22 24  1  0  0  0
 23 82  1  0  0  0
 23 83  1  0  0  0
 23 84  1  0  0  0
 24 29  1  0  0  0
 24 25  2  0  0  0
 25 26  1  0  0  0
 25 85  1  0  0  0
 26 27  2  0  0  0
 26 86  1  0  0  0
 27 28  1  0  0  0
 27 87  1  0  0  0
 28 29  2  0  0  0
 28 88  1  0  0  0
 29 89  1  0  0  0
 30 31  2  0  0  0
 30 32  1  0  0  0
 32 37  1  0  0  0
 32 33  2  0  0  0
 33 34  1  0  0  0
 33 90  1  0  0  0
 34 35  2  0  0  0
 34 43  1  0  0  0
 35 36  1  0  0  0
 35 91  1  0  0  0
 36 37  2  0  0  0
 36 38  1  0  0  0
 37 92  1  0  0  0
 38 42  1  0  0  0
 38 39  2  0  0  0
 39 40  1  0  0  0
 40 41  2  0  0  0
 40 93  1  0  0  0
 41 42  1  0  0  0
 41 94  1  0  0  0
 43 44  2  0  0  0
 43 45  1  0  0  0
 45 95  1  0  0  0
 46 47  1  0  0  0
 46 96  1  0  0  0
 47 48  2  0  0  0
 47 97  1  0  0  0
 48 98  1  0  0  0
M  CHG  1   8   1
M  END
> <s_m_source_file>
BACE_7.smi

> <i_m_source_file_index>
1

> <i_lp_mmshare_version>
42013

> <i_f3d_flags>
0

> <s_epik_input>
bzFbY0hdW2NIXW5jMS1jKFtjSF0yKVtjSF1jKFtjSF1jMjMpQyg9TylbTkhdW0NASF0oW0NASF0oW09IXSlbQ0gyXVtOSF1bQ0gyXWMoW2NIXVtjSF1bY0hdNClbY0hdYzRbQ0hdKFtDSDNdKVtDSDNdKVtDSDJdW0NASF0oW0NIM10pW0NIMl1bQ0gyXVtDSDJdW0NIMl1bQ0gyXU4oQzM9TylbQ0BIXShbQ0gzXSljNVtjSF1bY0hdW2NIXVtjSF1bY0hdNQ==

> <s_epik_cmdline>
J2VwaWtfcHl0aG9uJywgJy1waCcsICc3LjAnLCAnLXRuJywgJzgnLCAnLW1hJywgJzIwMCcsICctaW1hZScsICc8aW5maWxlLm1hZT4nLCAnLW9tYWUnLCAnPG91dGZpbGUubWFlPic=

> <r_epik_Ionization_Penalty>
0.0165162

> <r_epik_Ionization_Penalty_Charging>
0.0165153

> <r_epik_Ionization_Penalty_Neutral>
9.34402e-07

> <r_epik_State_Penalty>
0.0130399

> <r_epik_Charging_Adjusted_Penalty>
0.0295552

> <i_epik_Tot_Q>
1

> <i_epik_Tot_abs_Q>
1

> <s_lp_Force_Field>
OPLS_2005

> <r_lp_Energy>
54.3097

> <b_lp_Chiralities_Consistent>
1

> <s_lp_Variant>
BACE_7.smi:1-1

$$$$
BACE_7.smi:1
                    3D
 Structure written by MMmdl.
 98102  0  0  1  0            999 V2000
   -6.3731   -1.9467    2.9738 C   0  0  0  0  0  0
   -4.8401   -1.9781    2.8755 C   0  0  0  0  0  0
   -4.1894   -2.3080    4.2279 C   0  0  0  0  0  0
   -4.2886   -0.6857    2.2871 C   0  0  0  0  0  0
   -3.5981   -0.7097    1.0563 C   0  0  0  0  0  0
   -3.0757    0.4790    0.5057 C   0  0  0  0  0  0
   -2.3204    0.4396   -0.8093 C   0  0  0  0  0  0
   -0.8780    0.6032   -0.6415 N   0  0  0  0  0  0
   -0.2139   -0.5521   -0.0392 C   0  0  0  0  0  0
    1.3103   -0.3493    0.0364 C   0  0  1  0  0  0
    1.5802    0.4960    1.1385 O   0  0  0  0  0  0
    2.0699   -1.6868    0.2060 C   0  0  2  0  0  0
    1.8731   -2.3777    1.5810 C   0  0  0  0  0  0
    2.5314   -3.7752    1.7013 C   0  0  2  0  0  0
    1.7073   -4.8492    0.9690 C   0  0  0  0  0  0
    2.7829   -4.1486    3.1799 C   0  0  0  0  0  0
    3.6783   -5.3865    3.4122 C   0  0  0  0  0  0
    5.0697   -5.3461    2.7454 C   0  0  0  0  0  0
    5.9444   -4.1557    3.1739 C   0  0  0  0  0  0
    7.3201   -4.1502    2.4775 C   0  0  0  0  0  0
    8.0980   -2.9383    2.8024 N   0  0  0  0  0  0
    8.7518   -2.9907    4.1316 C   0  0  2  0  0  0
    8.1859   -1.9034    5.0726 C   0  0  0  0  0  0
   10.2830   -3.0625    4.0526 C   0  0  0  0  0  0
   10.8837   -4.0647    3.2570 C   0  0  0  0  0  0
   12.2847   -4.1607    3.1568 C   0  0  0  0  0  0
   13.1038   -3.2550    3.8553 C   0  0  0  0  0  0
   12.5187   -2.2550    4.6539 C   0  0  0  0  0  0
   11.1170   -2.1590    4.7541 C   0  0  0  0  0  0
    8.3275   -1.9031    1.9423 C   0  0  0  0  0  0
    9.0699   -0.9591    2.2154 O   0  0  0  0  0  0
    7.6960   -1.9149    0.5776 C   0  0  0  0  0  0
    6.2944   -1.9188    0.4200 C   0  0  0  0  0  0
    5.7093   -1.9200   -0.8672 C   0  0  0  0  0  0
    6.5464   -1.8940   -2.0032 C   0  0  0  0  0  0
    7.9506   -1.8518   -1.8608 C   0  0  0  0  0  0
    8.5172   -1.8579   -0.5678 C   0  0  0  0  0  0
    8.8133   -1.8078   -3.0381 C   0  0  0  0  0  0
   10.1460   -1.8031   -3.0920 N   0  0  0  0  0  0
   10.4576   -1.7552   -4.4427 C   0  0  0  0  0  0
    9.2837   -1.7318   -5.1478 C   0  0  0  0  0  0
    8.2344   -1.7649   -4.2708 O   0  0  0  0  0  0
    4.2196   -2.0252   -1.0297 C   0  0  0  0  0  0
    3.7276   -2.5850   -2.0097 O   0  0  0  0  0  0
    3.4965   -1.4797   -0.0384 N   0  0  0  0  0  0
   -3.2455    1.7005    1.1887 C   0  0  0  0  0  0
   -3.9362    1.7321    2.4148 C   0  0  0  0  0  0
   -4.4566    0.5436    2.9621 C   0  0  0  0  0  0
    1.6542    0.1393   -0.8771 H   0  0  0  0  0  0
    1.6813   -2.3602   -0.5585 H   0  0  0  0  0  0
    3.5055   -3.7243    1.2212 H   0  0  0  0  0  0
    8.4794   -3.9327    4.6099 H   0  0  0  0  0  0
   -6.8231   -1.7675    1.9969 H   0  0  0  0  0  0
   -6.7180   -1.1631    3.6488 H   0  0  0  0  0  0
   -6.7608   -2.8957    3.3450 H   0  0  0  0  0  0
   -4.5813   -2.7890    2.1935 H   0  0  0  0  0  0
   -3.1056   -2.3802    4.1327 H   0  0  0  0  0  0
   -4.5496   -3.2625    4.6125 H   0  0  0  0  0  0
   -4.4076   -1.5473    4.9778 H   0  0  0  0  0  0
   -3.4602   -1.6443    0.5325 H   0  0  0  0  0  0
   -2.5414   -0.4869   -1.3413 H   0  0  0  0  0  0
   -2.7049    1.2463   -1.4340 H   0  0  0  0  0  0
   -0.4496    0.8267   -1.5341 H   0  0  0  0  0  0
   -0.6203   -0.7621    0.9509 H   0  0  0  0  0  0
   -0.4248   -1.4311   -0.6497 H   0  0  0  0  0  0
    1.0807    1.2911    1.0308 H   0  0  0  0  0  0
    2.2893   -1.7248    2.3491 H   0  0  0  0  0  0
    0.8114   -2.4615    1.8144 H   0  0  0  0  0  0
    0.7207   -4.9659    1.4182 H   0  0  0  0  0  0
    2.2022   -5.8193    0.9962 H   0  0  0  0  0  0
    1.5656   -4.5974   -0.0816 H   0  0  0  0  0  0
    3.2373   -3.3020    3.6948 H   0  0  0  0  0  0
    1.8253   -4.3046    3.6779 H   0  0  0  0  0  0
    3.8096   -5.5197    4.4865 H   0  0  0  0  0  0
    3.1537   -6.2799    3.0737 H   0  0  0  0  0  0
    5.5948   -6.2706    2.9880 H   0  0  0  0  0  0
    4.9615   -5.3528    1.6608 H   0  0  0  0  0  0
    5.4236   -3.2236    2.9694 H   0  0  0  0  0  0
    6.0811   -4.1870    4.2550 H   0  0  0  0  0  0
    7.8801   -5.0355    2.7811 H   0  0  0  0  0  0
    7.1936   -4.2785    1.4031 H   0  0  0  0  0  0
    8.5376   -2.0473    6.0946 H   0  0  0  0  0  0
    7.0967   -1.9437    5.1012 H   0  0  0  0  0  0
    8.4666   -0.8965    4.7638 H   0  0  0  0  0  0
   10.2691   -4.7683    2.7157 H   0  0  0  0  0  0
   12.7306   -4.9295    2.5432 H   0  0  0  0  0  0
   14.1788   -3.3270    3.7790 H   0  0  0  0  0  0
   13.1460   -1.5583    5.1902 H   0  0  0  0  0  0
   10.7024   -1.3776    5.3721 H   0  0  0  0  0  0
    5.6672   -1.9265    1.2965 H   0  0  0  0  0  0
    6.1053   -1.9059   -2.9895 H   0  0  0  0  0  0
    9.5913   -1.8279   -0.4505 H   0  0  0  0  0  0
   11.4792   -1.7420   -4.7925 H   0  0  0  0  0  0
    9.0383   -1.6950   -6.1988 H   0  0  0  0  0  0
    4.0016   -0.9944    0.6886 H   0  0  0  0  0  0
   -2.8434    2.6136    0.7749 H   0  0  0  0  0  0
   -4.0649    2.6686    2.9373 H   0  0  0  0  0  0
   -4.9831    0.5805    3.9042 H   0  0  0  0  0  0
  1  2  1  0  0  0
  1 53  1  0  0  0
  1 54  1  0  0  0
  1 55  1  0  0  0
  2  3  1  0  0  0
  2  4  1  0  0  0
  2 56  1  0  0  0
  3 57  1  0  0  0
  3 58  1  0  0  0
  3 59  1  0  0  0
  4 48  1  0  0  0
  4  5  2  0  0  0
  5  6  1  0  0  0
  5 60  1  0  0  0
  6  7  1  0  0  0
  6 46  2  0  0  0
  7  8  1  0  0  0
  7 61  1  0  0  0
  7 62  1  0  0  0
  8  9  1  0  0  0
  8 63  1  0  0  0
  9 10  1  0  0  0
  9 64  1  0  0  0
  9 65  1  0  0  0
 10 49  1  0  0  0
 10 11  1  0  0  0
 10 12  1  0  0  0
 11 66  1  0  0  0
 12 50  1  0  0  0
 12 45  1  0  0  0
 12 13  1  0  0  0
 13 14  1  0  0  0
 13 67  1  0  0  0
 13 68  1  0  0  0
 14 51  1  0  0  0
 14 15  1  0  0  0
 14 16  1  0  0  0
 15 69  1  0  0  0
 15 70  1  0  0  0
 15 71  1  0  0  0
 16 17  1  0  0  0
 16 72  1  0  0  0
 16 73  1  0  0  0
 17 18  1  0  0  0
 17 74  1  0  0  0
 17 75  1  0  0  0
 18 19  1  0  0  0
 18 76  1  0  0  0
 18 77  1  0  0  0
 19 20  1  0  0  0
 19 78  1  0  0  0
 19 79  1  0  0  0
 20 21  1  0  0  0
 20 80  1  0  0  0
 20 81  1  0  0  0
 21 22  1  0  0  0
 21 30  1  0  0  0
 22 52  1  0  0  0
 22 23  1  0  0  0
 22 24  1  0  0  0
 23 82  1  0  0  0
 23 83  1  0  0  0
 23 84  1  0  0  0
 24 29  1  0  0  0
 24 25  2  0  0  0
 25 26  1  0  0  0
 25 85  1  0  0  0
 26 27  2  0  0  0
 26 86  1  0  0  0
 27 28  1  0  0  0
 27 87  1  0  0  0
 28 29  2  0  0  0
 28 88  1  0  0  0
 29 89  1  0  0  0
 30 31  2  0  0  0
 30 32  1  0  0  0
 32 37  1  0  0  0
 32 33  2  0  0  0
 33 34  1  0  0  0
 33 90  1  0  0  0
 34 35  2  0  0  0
 34 43  1  0  0  0
 35 36  1  0  0  0
 35 91  1  0  0  0
 36 37  2  0  0  0
 36 38  1  0  0  0
 37 92  1  0  0  0
 38 42  1  0  0  0
 38 39  2  0  0  0
 39 40  1  0  0  0
 40 41  2  0  0  0
 40 93  1  0  0  0
 41 42  1  0  0  0
 41 94  1  0  0  0
 43 44  2  0  0  0
 43 45  1  0  0  0
 45 95  1  0  0  0
 46 47  1  0  0  0
 46 96  1  0  0  0
 47 48  2  0  0  0
 47 97  1  0  0  0
 48 98  1  0  0  0
M  END
> <s_m_source_file>
BACE_7.smi

> <i_m_source_file_index>
1

> <i_lp_mmshare_version>
42013

> <i_f3d_flags>
0

> <s_epik_input>
bzFbY0hdW2NIXW5jMS1jKFtjSF0yKVtjSF1jKFtjSF1jMjMpQyg9TylbTkhdW0NASF0oW0NASF0oW09IXSlbQ0gyXVtOSF1bQ0gyXWMoW2NIXVtjSF1bY0hdNClbY0hdYzRbQ0hdKFtDSDNdKVtDSDNdKVtDSDJdW0NASF0oW0NIM10pW0NIMl1bQ0gyXVtDSDJdW0NIMl1bQ0gyXU4oQzM9TylbQ0BIXShbQ0gzXSljNVtjSF1bY0hdW2NIXVtjSF1bY0hdNQ==

> <s_epik_cmdline>
J2VwaWtfcHl0aG9uJywgJy1waCcsICc3LjAnLCAnLXRuJywgJzgnLCAnLW1hJywgJzIwMCcsICctaW1hZScsICc8aW5maWxlLm1hZT4nLCAnLW9tYWUnLCAnPG91dGZpbGUubWFlPic=

> <r_epik_Ionization_Penalty>
2.12936

> <r_epik_Ionization_Penalty_Charging>
0

> <r_epik_Ionization_Penalty_Neutral>
2.12936

> <r_epik_State_Penalty>
2.26762

> <r_epik_Charging_Adjusted_Penalty>
2.26762

> <i_epik_Tot_Q>
0

> <i_epik_Tot_abs_Q>
0

> <s_lp_Force_Field>
OPLS_2005

> <r_lp_Energy>
57.4228

> <b_lp_Chiralities_Consistent>
1

> <s_lp_Variant>
BACE_7.smi:1-2

$$$$
