BACE_89.smi:1
                    3D
 Structure written by MMmdl.
 80 83  0  0  1  0            999 V2000
    0.4644    5.8858   -2.1996 C   0  0  0  0  0  0
   -0.5747    4.7797   -2.4411 C   0  0  0  0  0  0
   -1.9107    5.3543   -2.9374 C   0  0  0  0  0  0
   -0.7606    3.9055   -1.2069 C   0  0  0  0  0  0
   -0.4286    2.5342   -1.2561 C   0  0  0  0  0  0
   -0.5900    1.7178   -0.1170 C   0  0  0  0  0  0
   -0.2204    0.2497   -0.1752 C   0  0  0  0  0  0
    1.2190    0.0710    0.0906 N   0  3  0  0  0  0
    1.6571   -1.3386    0.1281 C   0  0  0  0  0  0
    3.1790   -1.4417    0.3326 C   0  0  1  0  0  0
    3.4937   -0.9570    1.6254 O   0  0  0  0  0  0
    3.7073   -2.8915    0.1600 C   0  0  2  0  0  0
    3.1775   -3.8918    1.2206 C   0  0  0  0  0  0
    4.0086   -5.1557    1.3665 C   0  0  0  0  0  0
    4.7385   -5.3851    2.5506 C   0  0  0  0  0  0
    5.5290   -6.5406    2.7008 C   0  0  0  0  0  0
    5.5769   -7.4816    1.6425 C   0  0  0  0  0  0
    4.8472   -7.2578    0.4591 C   0  0  0  0  0  0
    4.0625   -6.0982    0.3201 C   0  0  0  0  0  0
    6.2104   -6.6778    3.8891 O   0  0  0  0  0  0
    7.2617   -7.6303    3.9427 C   0  0  0  0  0  0
    8.1115   -7.3794    5.1953 C   0  0  0  0  0  0
    8.6430   -5.9396    5.3413 C   0  0  0  0  0  0
    9.3710   -5.3872    4.1052 C   0  0  0  0  0  0
    8.4318   -4.7923    3.2187 O   0  0  0  0  0  0
    9.0152   -4.3719    1.9945 C   0  0  1  0  0  0
    9.0184   -5.4840    0.9391 C   0  0  0  0  0  0
    8.5849   -4.8061   -0.3665 C   0  0  0  0  0  0
    7.9734   -3.5514    0.0422 N   0  0  0  0  0  0
    7.4144   -2.6456   -0.9669 C   0  0  0  0  0  0
    5.8836   -2.5210   -1.0070 C   0  0  0  0  0  0
    5.3556   -2.0721   -2.0243 O   0  0  0  0  0  0
    5.1701   -2.9135    0.0622 N   0  0  0  0  0  0
    8.1652   -3.2902    1.3427 C   0  0  0  0  0  0
    7.7579   -2.2998    1.9488 O   0  0  0  0  0  0
   -1.0872    2.2756    1.0788 C   0  0  0  0  0  0
   -1.4229    3.6413    1.1334 C   0  0  0  0  0  0
   -1.2604    4.4537   -0.0049 C   0  0  0  0  0  0
    3.6616   -0.7871   -0.3941 H   0  0  0  0  0  0
    3.3509   -3.2635   -0.8028 H   0  0  0  0  0  0
   10.0145   -3.9569    2.1389 H   0  0  0  0  0  0
    1.4237    5.4634   -1.8987 H   0  0  0  0  0  0
    0.1446    6.5758   -1.4181 H   0  0  0  0  0  0
    0.6322    6.4697   -3.1050 H   0  0  0  0  0  0
   -0.1851    4.1463   -3.2392 H   0  0  0  0  0  0
   -2.6223    4.5577   -3.1570 H   0  0  0  0  0  0
   -1.7726    5.9320   -3.8519 H   0  0  0  0  0  0
   -2.3656    6.0136   -2.1978 H   0  0  0  0  0  0
   -0.0444    2.1052   -2.1702 H   0  0  0  0  0  0
   -0.8045   -0.3065    0.5596 H   0  0  0  0  0  0
   -0.4686   -0.1543   -1.1577 H   0  0  0  0  0  0
    1.7396    0.5525   -0.6288 H   0  0  0  0  0  0
    1.1204   -1.8688    0.9162 H   0  0  0  0  0  0
    1.3827   -1.8077   -0.8177 H   0  0  0  0  0  0
    3.1566   -1.5627    2.2680 H   0  0  0  0  0  0
    3.1273   -3.4168    2.2001 H   0  0  0  0  0  0
    2.1520   -4.1757    0.9820 H   0  0  0  0  0  0
    4.7057   -4.6636    3.3541 H   0  0  0  0  0  0
    6.1632   -8.3849    1.7191 H   0  0  0  0  0  0
    4.8891   -7.9793   -0.3434 H   0  0  0  0  0  0
    3.5077   -5.9317   -0.5916 H   0  0  0  0  0  0
    6.8470   -8.6387    3.9732 H   0  0  0  0  0  0
    7.8976   -7.5645    3.0599 H   0  0  0  0  0  0
    7.5269   -7.6276    6.0815 H   0  0  0  0  0  0
    8.9532   -8.0726    5.1876 H   0  0  0  0  0  0
    7.8322   -5.2643    5.6175 H   0  0  0  0  0  0
    9.3337   -5.9275    6.1851 H   0  0  0  0  0  0
   10.0806   -4.6197    4.4175 H   0  0  0  0  0  0
    9.9440   -6.1738    3.6117 H   0  0  0  0  0  0
    9.9920   -5.9662    0.8490 H   0  0  0  0  0  0
    8.2933   -6.2538    1.2016 H   0  0  0  0  0  0
    9.4475   -4.5976   -1.0007 H   0  0  0  0  0  0
    7.8846   -5.4239   -0.9302 H   0  0  0  0  0  0
    7.8303   -1.6484   -0.8153 H   0  0  0  0  0  0
    7.7552   -2.9620   -1.9539 H   0  0  0  0  0  0
    5.6748   -3.2667    0.8630 H   0  0  0  0  0  0
   -1.2130    1.6598    1.9575 H   0  0  0  0  0  0
   -1.8045    4.0672    2.0497 H   0  0  0  0  0  0
   -1.5204    5.5006    0.0506 H   0  0  0  0  0  0
    1.4381    0.4948    0.9811 H   0  0  0  0  0  0
  1  2  1  0  0  0
  1 42  1  0  0  0
  1 43  1  0  0  0
  1 44  1  0  0  0
  2  3  1  0  0  0
  2  4  1  0  0  0
  2 45  1  0  0  0
  3 46  1  0  0  0
  3 47  1  0  0  0
  3 48  1  0  0  0
  4 38  1  0  0  0
  4  5  2  0  0  0
  5  6  1  0  0  0
  5 49  1  0  0  0
  6  7  1  0  0  0
  6 36  2  0  0  0
  7  8  1  0  0  0
  7 50  1  0  0  0
  7 51  1  0  0  0
  8  9  1  0  0  0
  8 52  1  0  0  0
  8 80  1  0  0  0
  9 10  1  0  0  0
  9 53  1  0  0  0
  9 54  1  0  0  0
 10 39  1  0  0  0
 10 11  1  0  0  0
 10 12  1  0  0  0
 11 55  1  0  0  0
 12 40  1  0  0  0
 12 33  1  0  0  0
 12 13  1  0  0  0
 13 14  1  0  0  0
 13 56  1  0  0  0
 13 57  1  0  0  0
 14 19  1  0  0  0
 14 15  2  0  0  0
 15 16  1  0  0  0
 15 58  1  0  0  0
 16 17  2  0  0  0
 16 20  1  0  0  0
 17 18  1  0  0  0
 17 59  1  0  0  0
 18 19  2  0  0  0
 18 60  1  0  0  0
 19 61  1  0  0  0
 20 21  1  0  0  0
 21 22  1  0  0  0
 21 62  1  0  0  0
 21 63  1  0  0  0
 22 23  1  0  0  0
 22 64  1  0  0  0
 22 65  1  0  0  0
 23 24  1  0  0  0
 23 66  1  0  0  0
 23 67  1  0  0  0
 24 25  1  0  0  0
 24 68  1  0  0  0
 24 69  1  0  0  0
 25 26  1  0  0  0
 26 41  1  0  0  0
 26 34  1  0  0  0
 26 27  1  0  0  0
 27 28  1  0  0  0
 27 70  1  0  0  0
 27 71  1  0  0  0
 28 29  1  0  0  0
 28 72  1  0  0  0
 28 73  1  0  0  0
 29 30  1  0  0  0
 29 34  1  0  0  0
 30 31  1  0  0  0
 30 74  1  0  0  0
 30 75  1  0  0  0
 31 32  2  0  0  0
 31 33  1  0  0  0
 33 76  1  0  0  0
 34 35  2  0  0  0
 36 37  1  0  0  0
 36 77  1  0  0  0
 37 38  2  0  0  0
 37 78  1  0  0  0
 38 79  1  0  0  0
M  CHG  1   8   1
M  END
> <s_m_source_file>
BACE_89.smi

> <i_m_source_file_index>
1

> <i_lp_mmshare_version>
42013

> <i_f3d_flags>
0

> <s_epik_input>
W0NIM11bQ0hdKFtDSDNdKWMxW2NIXWMoW2NIXVtjSF1bY0hdMSlbQ0gyXVtOSF1bQ0gyXVtDQEBIXShbT0hdKVtDQEhdKFtDSDJdMilbTkhdQyg9TylbQ0gyXU4oQzM9TylbQ0gyXVtDSDJdW0NAQEhdM09bQ0gyXVtDSDJdW0NIMl1bQ0gyXU9jKFtjSF1jMjQpW2NIXVtjSF1bY0hdNA==

> <s_epik_cmdline>
J2VwaWtfcHl0aG9uJywgJy1waCcsICc3LjAnLCAnLXRuJywgJzgnLCAnLW1hJywgJzIwMCcsICctaW1hZScsICc8aW5maWxlLm1hZT4nLCAnLW9tYWUnLCAnPG91dGZpbGUubWFlPic=

> <r_lp_tautomer_probability>
1

> <r_epik_Ionization_Penalty>
0.0210188

> <r_epik_Ionization_Penalty_Charging>
0.0210181

> <r_epik_Ionization_Penalty_Neutral>
6.8199e-07

> <r_epik_State_Penalty>
0.0168797

> <r_epik_Charging_Adjusted_Penalty>
0.0378979

> <i_epik_Tot_Q>
1

> <i_epik_Tot_abs_Q>
1

> <s_lp_Force_Field>
OPLS_2005

> <r_lp_Energy>
33.6927

> <b_lp_Chiralities_Consistent>
1

> <s_lp_Variant>
BACE_89.smi:1-1

$$$$
BACE_89.smi:1
                    3D
 Structure written by MMmdl.
 79 82  0  0  1  0            999 V2000
   -0.5737    2.8975   -3.7413 C   0  0  0  0  0  0
   -0.4645    3.7384   -2.4599 C   0  0  0  0  0  0
    0.9298    4.3678   -2.3124 C   0  0  0  0  0  0
   -0.8480    2.9340   -1.2247 C   0  0  0  0  0  0
   -0.0971    1.8000   -0.8449 C   0  0  0  0  0  0
   -0.4388    1.0675    0.3123 C   0  0  0  0  0  0
    0.3785   -0.1429    0.7322 C   0  0  0  0  0  0
    1.8227    0.0790    0.6857 N   0  0  0  0  0  0
    2.3130    1.0303    1.6814 C   0  0  0  0  0  0
    3.8546    1.1075    1.6651 C   0  0  1  0  0  0
    4.2261    1.9047    0.5574 O   0  0  0  0  0  0
    4.4722    1.7501    2.9391 C   0  0  2  0  0  0
    6.0231    1.7277    3.0009 C   0  0  0  0  0  0
    6.6919    0.4605    2.4778 C   0  0  0  0  0  0
    6.3504   -0.8104    2.9919 C   0  0  0  0  0  0
    6.9043   -1.9835    2.4420 C   0  0  0  0  0  0
    7.8787   -1.8746    1.4223 C   0  0  0  0  0  0
    8.2533   -0.6100    0.9324 C   0  0  0  0  0  0
    7.6531    0.5529    1.4492 C   0  0  0  0  0  0
    6.4625   -3.1909    2.9308 O   0  0  0  0  0  0
    6.3104   -4.2529    1.9918 C   0  0  0  0  0  0
    4.9206   -4.8806    2.1692 C   0  0  0  0  0  0
    3.7695   -3.8933    1.8803 C   0  0  0  0  0  0
    2.8974   -3.6047    3.1084 C   0  0  0  0  0  0
    3.7121   -3.0552    4.1343 O   0  0  0  0  0  0
    3.0509   -2.8505    5.3766 C   0  0  1  0  0  0
    4.1120   -2.7020    6.4732 C   0  0  0  0  0  0
    4.2324   -1.1969    6.7402 C   0  0  0  0  0  0
    3.0492   -0.6137    6.1302 N   0  0  0  0  0  0
    2.7573    0.8134    6.2891 C   0  0  0  0  0  0
    3.2535    1.6996    5.1348 C   0  0  0  0  0  0
    2.9997    2.9032    5.1559 O   0  0  0  0  0  0
    3.9430    1.1103    4.1419 N   0  0  0  0  0  0
    2.3666   -1.4879    5.3788 C   0  0  0  0  0  0
    1.3397   -1.2469    4.7450 O   0  0  0  0  0  0
   -1.5518    1.4622    1.0824 C   0  0  0  0  0  0
   -2.3094    2.5869    0.7047 C   0  0  0  0  0  0
   -1.9573    3.3222   -0.4432 C   0  0  0  0  0  0
    4.2464    0.1007    1.5233 H   0  0  0  0  0  0
    4.1709    2.7990    2.9578 H   0  0  0  0  0  0
    2.3571   -3.6592    5.6121 H   0  0  0  0  0  0
   -1.5809    2.4978   -3.8621 H   0  0  0  0  0  0
    0.1201    2.0562   -3.7316 H   0  0  0  0  0  0
   -0.3507    3.4984   -4.6234 H   0  0  0  0  0  0
   -1.1769    4.5591   -2.5541 H   0  0  0  0  0  0
    0.9800    5.0028   -1.4275 H   0  0  0  0  0  0
    1.1726    4.9873   -3.1761 H   0  0  0  0  0  0
    1.7075    3.6090   -2.2221 H   0  0  0  0  0  0
    0.7530    1.4956   -1.4377 H   0  0  0  0  0  0
    0.0806   -0.4653    1.7309 H   0  0  0  0  0  0
    0.1185   -0.9599    0.0588 H   0  0  0  0  0  0
    2.3103   -0.8058    0.7820 H   0  0  0  0  0  0
    1.8789    2.0193    1.5290 H   0  0  0  0  0  0
    1.9660    0.6963    2.6582 H   0  0  0  0  0  0
    3.8234    2.7543    0.6516 H   0  0  0  0  0  0
    6.3940    2.5691    2.4142 H   0  0  0  0  0  0
    6.3690    1.9138    4.0187 H   0  0  0  0  0  0
    5.6180   -0.9013    3.7796 H   0  0  0  0  0  0
    8.3447   -2.7558    1.0067 H   0  0  0  0  0  0
    8.9925   -0.5327    0.1488 H   0  0  0  0  0  0
    7.9325    1.5162    1.0478 H   0  0  0  0  0  0
    6.4039   -3.9329    0.9534 H   0  0  0  0  0  0
    7.0881   -4.9958    2.1704 H   0  0  0  0  0  0
    4.8350   -5.7310    1.4922 H   0  0  0  0  0  0
    4.8319   -5.2956    3.1740 H   0  0  0  0  0  0
    4.1570   -2.9538    1.4837 H   0  0  0  0  0  0
    3.1366   -4.3040    1.0930 H   0  0  0  0  0  0
    2.0994   -2.9131    2.8377 H   0  0  0  0  0  0
    2.4283   -4.5278    3.4523 H   0  0  0  0  0  0
    3.7746   -3.2099    7.3776 H   0  0  0  0  0  0
    5.0693   -3.1429    6.1919 H   0  0  0  0  0  0
    4.2837   -0.9787    7.8074 H   0  0  0  0  0  0
    5.1234   -0.7865    6.2630 H   0  0  0  0  0  0
    1.6812    0.9538    6.4013 H   0  0  0  0  0  0
    3.2092    1.1714    7.2148 H   0  0  0  0  0  0
    4.0987    0.1155    4.2173 H   0  0  0  0  0  0
   -1.8256    0.9066    1.9674 H   0  0  0  0  0  0
   -3.1600    2.8881    1.2981 H   0  0  0  0  0  0
   -2.5438    4.1862   -0.7188 H   0  0  0  0  0  0
  1  2  1  0  0  0
  1 42  1  0  0  0
  1 43  1  0  0  0
  1 44  1  0  0  0
  2  3  1  0  0  0
  2  4  1  0  0  0
  2 45  1  0  0  0
  3 46  1  0  0  0
  3 47  1  0  0  0
  3 48  1  0  0  0
  4 38  1  0  0  0
  4  5  2  0  0  0
  5  6  1  0  0  0
  5 49  1  0  0  0
  6  7  1  0  0  0
  6 36  2  0  0  0
  7  8  1  0  0  0
  7 50  1  0  0  0
  7 51  1  0  0  0
  8  9  1  0  0  0
  8 52  1  0  0  0
  9 10  1  0  0  0
  9 53  1  0  0  0
  9 54  1  0  0  0
 10 39  1  0  0  0
 10 11  1  0  0  0
 10 12  1  0  0  0
 11 55  1  0  0  0
 12 40  1  0  0  0
 12 33  1  0  0  0
 12 13  1  0  0  0
 13 14  1  0  0  0
 13 56  1  0  0  0
 13 57  1  0  0  0
 14 19  1  0  0  0
 14 15  2  0  0  0
 15 16  1  0  0  0
 15 58  1  0  0  0
 16 17  2  0  0  0
 16 20  1  0  0  0
 17 18  1  0  0  0
 17 59  1  0  0  0
 18 19  2  0  0  0
 18 60  1  0  0  0
 19 61  1  0  0  0
 20 21  1  0  0  0
 21 22  1  0  0  0
 21 62  1  0  0  0
 21 63  1  0  0  0
 22 23  1  0  0  0
 22 64  1  0  0  0
 22 65  1  0  0  0
 23 24  1  0  0  0
 23 66  1  0  0  0
 23 67  1  0  0  0
 24 25  1  0  0  0
 24 68  1  0  0  0
 24 69  1  0  0  0
 25 26  1  0  0  0
 26 41  1  0  0  0
 26 34  1  0  0  0
 26 27  1  0  0  0
 27 28  1  0  0  0
 27 70  1  0  0  0
 27 71  1  0  0  0
 28 29  1  0  0  0
 28 72  1  0  0  0
 28 73  1  0  0  0
 29 30  1  0  0  0
 29 34  1  0  0  0
 30 31  1  0  0  0
 30 74  1  0  0  0
 30 75  1  0  0  0
 31 32  2  0  0  0
 31 33  1  0  0  0
 33 76  1  0  0  0
 34 35  2  0  0  0
 36 37  1  0  0  0
 36 77  1  0  0  0
 37 38  2  0  0  0
 37 78  1  0  0  0
 38 79  1  0  0  0
M  END
> <s_m_source_file>
BACE_89.smi

> <i_m_source_file_index>
1

> <i_lp_mmshare_version>
42013

> <i_f3d_flags>
0

> <s_epik_input>
W0NIM11bQ0hdKFtDSDNdKWMxW2NIXWMoW2NIXVtjSF1bY0hdMSlbQ0gyXVtOSF1bQ0gyXVtDQEBIXShbT0hdKVtDQEhdKFtDSDJdMilbTkhdQyg9TylbQ0gyXU4oQzM9TylbQ0gyXVtDSDJdW0NAQEhdM09bQ0gyXVtDSDJdW0NIMl1bQ0gyXU9jKFtjSF1jMjQpW2NIXVtjSF1bY0hdNA==

> <s_epik_cmdline>
J2VwaWtfcHl0aG9uJywgJy1waCcsICc3LjAnLCAnLXRuJywgJzgnLCAnLW1hJywgJzIwMCcsICctaW1hZScsICc8aW5maWxlLm1hZT4nLCAnLW9tYWUnLCAnPG91dGZpbGUubWFlPic=

> <r_lp_tautomer_probability>
1

> <r_epik_Ionization_Penalty>
1.98875

> <r_epik_Ionization_Penalty_Charging>
0

> <r_epik_Ionization_Penalty_Neutral>
1.98875

> <r_epik_State_Penalty>
2.11661

> <r_epik_Charging_Adjusted_Penalty>
2.11661

> <i_epik_Tot_Q>
0

> <i_epik_Tot_abs_Q>
0

> <s_lp_Force_Field>
OPLS_2005

> <r_lp_Energy>
42.9969

> <b_lp_Chiralities_Consistent>
1

> <s_lp_Variant>
BACE_89.smi:1-2

$$$$
