BACE_147.smi:1
                    3D
 Structure written by MMmdl.
 79 79  0  0  1  0            999 V2000
   -4.2849    0.8611   -3.3908 C   0  0  0  0  0  0
   -2.9243    0.3773   -2.8777 C   0  0  0  0  0  0
   -2.9531   -1.0937   -2.4295 C   0  0  0  0  0  0
   -1.5860   -1.6450   -1.9882 C   0  0  0  0  0  0
   -1.1024   -1.0152   -0.7634 N   0  0  0  0  0  0
   -0.1927   -0.0301   -0.7014 C   0  0  0  0  0  0
    0.3074    0.4899   -1.6991 O   0  0  0  0  0  0
    0.2334    0.4231    0.7049 C   0  0  2  0  0  0
   -0.0326    1.9281    0.8789 C   0  0  0  0  0  0
    1.7190    0.0913    0.9705 C   0  0  0  0  0  0
    2.0320   -1.4259    1.0401 C   0  0  2  0  0  0
    1.7215   -1.9148    2.3295 O   0  0  0  0  0  0
    3.4853   -1.8073    0.6553 C   0  0  2  0  0  0
    4.5457   -1.2044    1.6060 C   0  0  0  0  0  0
    6.0256   -1.4543    1.2193 C   0  0  2  0  0  0
    6.3413   -2.9549    1.0843 C   0  0  0  0  0  0
    6.9992   -0.8124    2.2309 C   0  0  0  0  0  0
    6.8798    0.7104    2.4480 C   0  0  0  0  0  0
    7.2857    1.5946    1.2532 C   0  0  0  0  0  0
    6.1292    1.9940    0.3105 C   0  0  0  0  0  0
    6.5270    3.0682   -0.7288 C   0  0  2  0  0  0
    6.7350    4.4462   -0.0701 C   0  0  0  0  0  0
    5.5013    3.2008   -1.8776 C   0  0  0  0  0  0
    5.4964    2.0314   -2.8906 C   0  0  0  0  0  0
    4.3344    1.0414   -2.7502 C   0  0  0  0  0  0
    3.2291    1.4160   -2.3605 O   0  0  0  0  0  0
    4.5957   -0.2269   -3.1090 N   0  0  0  0  0  0
    3.6204   -1.3198   -3.1940 C   0  0  1  0  0  0
    4.2279   -2.4075   -4.0980 C   0  0  0  0  0  0
    3.2619   -1.9575   -1.8343 C   0  0  0  0  0  0
    2.5098   -2.9319   -1.8042 O   0  0  0  0  0  0
    3.7691   -1.4040   -0.7205 N   0  0  0  0  0  0
   -0.3741   -0.1052    1.4416 H   0  0  0  0  0  0
    1.3691   -1.9669    0.3668 H   0  0  0  0  0  0
    3.5642   -2.8944    0.7059 H   0  0  0  0  0  0
    6.2220   -1.0068    0.2466 H   0  0  0  0  0  0
    7.4799    2.7769   -1.1728 H   0  0  0  0  0  0
    2.7011   -0.9464   -3.6490 H   0  0  0  0  0  0
   -4.2342    1.9052   -3.7012 H   0  0  0  0  0  0
   -5.0482    0.7805   -2.6161 H   0  0  0  0  0  0
   -4.6134    0.2747   -4.2495 H   0  0  0  0  0  0
   -2.1778    0.5060   -3.6624 H   0  0  0  0  0  0
   -2.6143    1.0140   -2.0488 H   0  0  0  0  0  0
   -3.6742   -1.2164   -1.6201 H   0  0  0  0  0  0
   -3.3195   -1.7057   -3.2547 H   0  0  0  0  0  0
   -1.6777   -2.7131   -1.7894 H   0  0  0  0  0  0
   -0.8576   -1.5521   -2.7957 H   0  0  0  0  0  0
   -1.4584   -1.3829    0.1071 H   0  0  0  0  0  0
   -1.0726    2.1758    0.6626 H   0  0  0  0  0  0
    0.5971    2.5261    0.2187 H   0  0  0  0  0  0
    0.1710    2.2437    1.9024 H   0  0  0  0  0  0
    2.3139    0.5635    0.1881 H   0  0  0  0  0  0
    2.0454    0.5702    1.8947 H   0  0  0  0  0  0
    2.2827   -1.4844    2.9564 H   0  0  0  0  0  0
    4.3749   -0.1303    1.6547 H   0  0  0  0  0  0
    4.3777   -1.5797    2.6158 H   0  0  0  0  0  0
    6.1107   -3.4935    2.0040 H   0  0  0  0  0  0
    7.3964   -3.1159    0.8613 H   0  0  0  0  0  0
    5.7750   -3.4151    0.2747 H   0  0  0  0  0  0
    6.8663   -1.3021    3.1966 H   0  0  0  0  0  0
    8.0240   -1.0360    1.9316 H   0  0  0  0  0  0
    5.8937    0.9889    2.8184 H   0  0  0  0  0  0
    7.5557    0.9540    3.2688 H   0  0  0  0  0  0
    7.7218    2.4990    1.6736 H   0  0  0  0  0  0
    8.0883    1.1210    0.6869 H   0  0  0  0  0  0
    5.7749    1.1061   -0.2080 H   0  0  0  0  0  0
    5.2802    2.3546    0.8928 H   0  0  0  0  0  0
    5.8268    4.7884    0.4272 H   0  0  0  0  0  0
    7.0082    5.1987   -0.8103 H   0  0  0  0  0  0
    7.5349    4.4350    0.6685 H   0  0  0  0  0  0
    4.5101    3.3914   -1.4643 H   0  0  0  0  0  0
    5.7410    4.1014   -2.4443 H   0  0  0  0  0  0
    5.4201    2.4446   -3.8969 H   0  0  0  0  0  0
    6.4481    1.4989   -2.8632 H   0  0  0  0  0  0
    5.5352   -0.4427   -3.4091 H   0  0  0  0  0  0
    3.5298   -3.2285   -4.2663 H   0  0  0  0  0  0
    5.1387   -2.8271   -3.6678 H   0  0  0  0  0  0
    4.4822   -2.0013   -5.0776 H   0  0  0  0  0  0
    4.3709   -0.6017   -0.8370 H   0  0  0  0  0  0
  1  2  1  0  0  0
  1 39  1  0  0  0
  1 40  1  0  0  0
  1 41  1  0  0  0
  2  3  1  0  0  0
  2 42  1  0  0  0
  2 43  1  0  0  0
  3  4  1  0  0  0
  3 44  1  0  0  0
  3 45  1  0  0  0
  4  5  1  0  0  0
  4 46  1  0  0  0
  4 47  1  0  0  0
  5  6  1  0  0  0
  5 48  1  0  0  0
  6  7  2  0  0  0
  6  8  1  0  0  0
  8 33  1  0  0  0
  8  9  1  0  0  0
  8 10  1  0  0  0
  9 49  1  0  0  0
  9 50  1  0  0  0
  9 51  1  0  0  0
 10 11  1  0  0  0
 10 52  1  0  0  0
 10 53  1  0  0  0
 11 34  1  0  0  0
 11 12  1  0  0  0
 11 13  1  0  0  0
 12 54  1  0  0  0
 13 35  1  0  0  0
 13 32  1  0  0  0
 13 14  1  0  0  0
 14 15  1  0  0  0
 14 55  1  0  0  0
 14 56  1  0  0  0
 15 36  1  0  0  0
 15 16  1  0  0  0
 15 17  1  0  0  0
 16 57  1  0  0  0
 16 58  1  0  0  0
 16 59  1  0  0  0
 17 18  1  0  0  0
 17 60  1  0  0  0
 17 61  1  0  0  0
 18 19  1  0  0  0
 18 62  1  0  0  0
 18 63  1  0  0  0
 19 20  1  0  0  0
 19 64  1  0  0  0
 19 65  1  0  0  0
 20 21  1  0  0  0
 20 66  1  0  0  0
 20 67  1  0  0  0
 21 37  1  0  0  0
 21 22  1  0  0  0
 21 23  1  0  0  0
 22 68  1  0  0  0
 22 69  1  0  0  0
 22 70  1  0  0  0
 23 24  1  0  0  0
 23 71  1  0  0  0
 23 72  1  0  0  0
 24 25  1  0  0  0
 24 73  1  0  0  0
 24 74  1  0  0  0
 25 26  2  0  0  0
 25 27  1  0  0  0
 27 28  1  0  0  0
 27 75  1  0  0  0
 28 38  1  0  0  0
 28 29  1  0  0  0
 28 30  1  0  0  0
 29 76  1  0  0  0
 29 77  1  0  0  0
 29 78  1  0  0  0
 30 31  2  0  0  0
 30 32  1  0  0  0
 32 79  1  0  0  0
M  END
> <s_m_source_file>
BACE_147.smi

> <i_m_source_file_index>
1

> <i_lp_mmshare_version>
42013

> <i_f3d_flags>
0

> <s_epik_input>
W0NIM11bQ0gyXVtDSDJdW0NIMl1bTkhdQyg9TylbQ0BIXShbQ0gzXSlbQ0gyXVtDQEhdKFtPSF0pW0NAQEhdMVtDSDJdW0NASF0oW0NIM10pW0NIMl1bQ0gyXVtDSDJdW0NIMl1bQ0BIXShbQ0gzXSlbQ0gyXVtDSDJdQyg9TylbTkhdW0NAQEhdKFtDSDNdKUMoPU8pW05IXTE=

> <s_epik_cmdline>
J2VwaWtfcHl0aG9uJywgJy1waCcsICc3LjAnLCAnLXRuJywgJzgnLCAnLW1hJywgJzIwMCcsICctaW1hZScsICc8aW5maWxlLm1hZT4nLCAnLW9tYWUnLCAnPG91dGZpbGUubWFlPic=

> <r_lp_tautomer_probability>
1

> <r_epik_Ionization_Penalty>
1.68619e-07

> <r_epik_Ionization_Penalty_Charging>
0

> <r_epik_Ionization_Penalty_Neutral>
1.68619e-07

> <r_epik_State_Penalty>
-0

> <r_epik_Charging_Adjusted_Penalty>
0

> <i_epik_Tot_Q>
0

> <i_epik_Tot_abs_Q>
0

> <s_lp_Force_Field>
OPLS_2005

> <r_lp_Energy>
16.1888

> <b_lp_Chiralities_Consistent>
1

> <s_lp_Variant>
BACE_147.smi:1-1

$$$$
