BACE_77.smi:1
                    3D
 Structure written by MMmdl.
 87 90  0  0  1  0            999 V2000
    6.8451   -0.2449    0.4753 C   0  0  0  0  0  0
    5.5644    0.3564    0.5446 O   0  0  0  0  0  0
    5.5657    1.5562    1.3022 C   0  0  0  0  0  0
    4.2037    2.2229    1.3148 C   0  0  0  0  0  0
    3.7620    2.9087    2.4628 C   0  0  0  0  0  0
    2.5108    3.5580    2.4770 C   0  0  0  0  0  0
    1.6827    3.4900    1.3293 C   0  0  0  0  0  0
    2.1156    2.8022    0.1754 C   0  0  0  0  0  0
    3.3905    2.1989    0.1653 C   0  0  0  0  0  0
    1.2830    2.7636   -1.0729 C   0  0  0  0  0  0
    1.7270    3.2624   -2.1046 O   0  0  0  0  0  0
    0.0957    2.1247   -1.0685 N   0  0  0  0  0  0
   -0.6479    1.4521    0.0042 C   0  0  1  0  0  0
   -2.1495    1.6576   -0.3388 C   0  0  0  0  0  0
   -3.1691    1.0110    0.5965 C   0  0  0  0  0  0
   -3.7203   -0.3275    0.1318 C   0  0  0  0  0  0
   -3.6262    1.5784    1.7304 C   0  0  0  0  0  0
   -3.2166    2.9073    2.3302 C   0  0  0  0  0  0
   -2.8748    2.7273    3.6955 O   0  0  0  0  0  0
   -2.7957    3.9246    4.4587 C   0  0  0  0  0  0
   -1.6148    4.8184    4.0482 C   0  0  0  0  0  0
   -0.2712    4.0811    4.1009 C   0  0  0  0  0  0
    0.9066    4.9967    3.7434 C   0  0  0  0  0  0
    2.1558    4.2589    3.6398 N   0  0  0  0  0  0
   -0.2484   -0.0491    0.1871 C   0  0  2  0  0  0
   -0.6268   -0.3861    1.5068 O   0  0  0  0  0  0
    1.2580   -0.3786    0.0414 C   0  0  0  0  0  0
    1.5637   -1.8098   -0.0883 N   0  0  0  0  0  0
    1.4901   -2.6237    1.1318 C   0  0  0  0  0  0
    1.4270   -4.1207    0.9331 C   0  0  0  0  0  0
    0.2089   -3.3759    1.4263 C   0  0  0  0  0  0
    2.3632   -2.0877    2.2362 C   0  0  0  0  0  0
    1.7968   -1.5074    3.3919 C   0  0  0  0  0  0
    2.6099   -0.9414    4.3961 C   0  0  0  0  0  0
    4.0127   -0.9661    4.2435 C   0  0  0  0  0  0
    4.5890   -1.5636    3.1079 C   0  0  0  0  0  0
    3.7682   -2.1186    2.1083 C   0  0  0  0  0  0
    1.9606   -0.2879    5.6097 C   0  0  0  0  0  0
    1.9901    1.2418    5.4903 C   0  0  0  0  0  0
    2.5670   -0.7711    6.9376 C   0  0  0  0  0  0
   -0.4498    1.9805    0.9360 H   0  0  0  0  0  0
   -0.7992   -0.6590   -0.5284 H   0  0  0  0  0  0
    6.7824   -1.1735   -0.0918 H   0  0  0  0  0  0
    7.2261   -0.4829    1.4692 H   0  0  0  0  0  0
    7.5598    0.4092   -0.0260 H   0  0  0  0  0  0
    5.8738    1.3393    2.3265 H   0  0  0  0  0  0
    6.2865    2.2612    0.8857 H   0  0  0  0  0  0
    4.3966    2.9478    3.3365 H   0  0  0  0  0  0
    0.7200    3.9782    1.3094 H   0  0  0  0  0  0
    3.7377    1.6944   -0.7252 H   0  0  0  0  0  0
   -0.3781    2.1171   -1.9602 H   0  0  0  0  0  0
   -2.3615    2.7262   -0.3884 H   0  0  0  0  0  0
   -2.3452    1.2897   -1.3473 H   0  0  0  0  0  0
   -2.9358   -1.0789    0.0632 H   0  0  0  0  0  0
   -4.1828   -0.2259   -0.8500 H   0  0  0  0  0  0
   -4.4777   -0.7075    0.8180 H   0  0  0  0  0  0
   -4.3766    1.0510    2.3011 H   0  0  0  0  0  0
   -2.3792    3.3467    1.7898 H   0  0  0  0  0  0
   -4.0641    3.5879    2.2393 H   0  0  0  0  0  0
   -3.7344    4.4760    4.3923 H   0  0  0  0  0  0
   -2.6819    3.6398    5.5049 H   0  0  0  0  0  0
   -1.7767    5.2176    3.0466 H   0  0  0  0  0  0
   -1.5803    5.6828    4.7121 H   0  0  0  0  0  0
   -0.1171    3.6640    5.0968 H   0  0  0  0  0  0
   -0.3027    3.2332    3.4159 H   0  0  0  0  0  0
    0.7147    5.5413    2.8186 H   0  0  0  0  0  0
    1.0246    5.7549    4.5177 H   0  0  0  0  0  0
    2.7958    4.2824    4.4210 H   0  0  0  0  0  0
   -0.1111    0.1299    2.1076 H   0  0  0  0  0  0
    1.6214    0.0803   -0.8754 H   0  0  0  0  0  0
    1.8318    0.0739    0.8494 H   0  0  0  0  0  0
    2.4826   -1.9261   -0.5032 H   0  0  0  0  0  0
    1.3848   -4.5060   -0.0839 H   0  0  0  0  0  0
    1.9444   -4.7543    1.6510 H   0  0  0  0  0  0
   -0.0776   -3.5250    2.4652 H   0  0  0  0  0  0
   -0.6181   -3.2736    0.7260 H   0  0  0  0  0  0
    0.7233   -1.4769    3.5013 H   0  0  0  0  0  0
    4.6547   -0.5254    4.9913 H   0  0  0  0  0  0
    5.6627   -1.5834    2.9968 H   0  0  0  0  0  0
    4.2207   -2.5555    1.2303 H   0  0  0  0  0  0
    0.9121   -0.5890    5.6199 H   0  0  0  0  0  0
    1.4839    1.5665    4.5809 H   0  0  0  0  0  0
    3.0117    1.6216    5.4564 H   0  0  0  0  0  0
    1.4860    1.7144    6.3337 H   0  0  0  0  0  0
    2.5153   -1.8573    7.0184 H   0  0  0  0  0  0
    2.0249   -0.3534    7.7866 H   0  0  0  0  0  0
    3.6112   -0.4767    7.0421 H   0  0  0  0  0  0
  1  2  1  0  0  0
  1 43  1  0  0  0
  1 44  1  0  0  0
  1 45  1  0  0  0
  2  3  1  0  0  0
  3  4  1  0  0  0
  3 46  1  0  0  0
  3 47  1  0  0  0
  4  9  1  0  0  0
  4  5  2  0  0  0
  5  6  1  0  0  0
  5 48  1  0  0  0
  6 24  1  0  0  0
  6  7  2  0  0  0
  7  8  1  0  0  0
  7 49  1  0  0  0
  8  9  2  0  0  0
  8 10  1  0  0  0
  9 50  1  0  0  0
 10 11  2  0  0  0
 10 12  1  0  0  0
 12 13  1  0  0  0
 12 51  1  0  0  0
 13 41  1  0  0  0
 13 14  1  0  0  0
 13 25  1  0  0  0
 14 15  1  0  0  0
 14 52  1  0  0  0
 14 53  1  0  0  0
 15 16  1  0  0  0
 15 17  2  0  0  0
 16 54  1  0  0  0
 16 55  1  0  0  0
 16 56  1  0  0  0
 17 18  1  0  0  0
 17 57  1  0  0  0
 18 19  1  0  0  0
 18 58  1  0  0  0
 18 59  1  0  0  0
 19 20  1  0  0  0
 20 21  1  0  0  0
 20 60  1  0  0  0
 20 61  1  0  0  0
 21 22  1  0  0  0
 21 62  1  0  0  0
 21 63  1  0  0  0
 22 23  1  0  0  0
 22 64  1  0  0  0
 22 65  1  0  0  0
 23 24  1  0  0  0
 23 66  1  0  0  0
 23 67  1  0  0  0
 24 68  1  0  0  0
 25 42  1  0  0  0
 25 26  1  0  0  0
 25 27  1  0  0  0
 26 69  1  0  0  0
 27 28  1  0  0  0
 27 70  1  0  0  0
 27 71  1  0  0  0
 28 29  1  0  0  0
 28 72  1  0  0  0
 29 31  1  0  0  0
 29 30  1  0  0  0
 29 32  1  0  0  0
 30 31  1  0  0  0
 30 73  1  0  0  0
 30 74  1  0  0  0
 31 75  1  0  0  0
 31 76  1  0  0  0
 32 37  1  0  0  0
 32 33  2  0  0  0
 33 34  1  0  0  0
 33 77  1  0  0  0
 34 35  2  0  0  0
 34 38  1  0  0  0
 35 36  1  0  0  0
 35 78  1  0  0  0
 36 37  2  0  0  0
 36 79  1  0  0  0
 37 80  1  0  0  0
 38 39  1  0  0  0
 38 40  1  0  0  0
 38 81  1  0  0  0
 39 82  1  0  0  0
 39 83  1  0  0  0
 39 84  1  0  0  0
 40 85  1  0  0  0
 40 86  1  0  0  0
 40 87  1  0  0  0
M  END
> <s_m_source_file>
BACE_77.smi

> <i_m_source_file_index>
1

> <i_lp_mmshare_version>
42013

> <i_f3d_flags>
0

> <s_epik_input>
W2NIXTFbY0hdW2NIXWMoW0NIXShbQ0gzXSlbQ0gzXSlbY0hdYzFDMihbQ0gyXVtDSDJdMilbTkhdW0NIMl1bQ0BASF0oW09IXSlbQ0BASF0oW05IXUMoPU8pYyhbY0hdMylbY0hdYyhbY0hdYzM0KVtDSDJdT1tDSDNdKVtDSDJdL0MoW0NIM10pPVtDSF1cW0NIMl1PW0NIMl1bQ0gyXVtDSDJdW0NIMl1bTkhdNA==

> <s_epik_cmdline>
J2VwaWtfcHl0aG9uJywgJy1waCcsICc3LjAnLCAnLXRuJywgJzgnLCAnLW1hJywgJzIwMCcsICctaW1hZScsICc8aW5maWxlLm1hZT4nLCAnLW9tYWUnLCAnPG91dGZpbGUubWFlPic=

> <r_epik_Ionization_Penalty>
0.329534

> <r_epik_Ionization_Penalty_Charging>
0

> <r_epik_Ionization_Penalty_Neutral>
0.329534

> <r_epik_State_Penalty>
0.324119

> <r_epik_Charging_Adjusted_Penalty>
0.324119

> <i_epik_Tot_Q>
0

> <i_epik_Tot_abs_Q>
0

> <s_lp_Force_Field>
OPLS_2005

> <r_lp_Energy>
48.4108

> <b_lp_Chiralities_Consistent>
1

> <s_lp_Variant>
BACE_77.smi:1-1

$$$$
BACE_77.smi:1
                    3D
 Structure written by MMmdl.
 88 91  0  0  1  0            999 V2000
   -1.4167   -3.9784    4.6550 C   0  0  0  0  0  0
   -1.6715   -2.7817    3.9407 O   0  0  0  0  0  0
   -2.6893   -1.9969    4.5402 C   0  0  0  0  0  0
   -2.9307   -0.7199    3.7614 C   0  0  0  0  0  0
   -4.1836   -0.4702    3.1657 C   0  0  0  0  0  0
   -4.4094    0.7152    2.4366 C   0  0  0  0  0  0
   -3.3581    1.6533    2.3031 C   0  0  0  0  0  0
   -2.0978    1.4056    2.8873 C   0  0  0  0  0  0
   -1.8963    0.2271    3.6347 C   0  0  0  0  0  0
   -0.9851    2.4024    2.7706 C   0  0  0  0  0  0
   -0.4812    2.8692    3.7894 O   0  0  0  0  0  0
   -0.5336    2.7478    1.5499 N   0  0  0  0  0  0
   -0.8492    2.2129    0.2185 C   0  0  1  0  0  0
   -0.2933    3.2619   -0.7821 C   0  0  0  0  0  0
   -0.3144    2.8692   -2.2559 C   0  0  0  0  0  0
    1.0352    2.4665   -2.8290 C   0  0  0  0  0  0
   -1.4118    2.9085   -3.0368 C   0  0  0  0  0  0
   -2.8157    3.3120   -2.6334 C   0  0  0  0  0  0
   -3.7124    2.2414   -2.8843 O   0  0  0  0  0  0
   -5.0898    2.5931   -2.8400 C   0  0  0  0  0  0
   -5.5870    2.8902   -1.4153 C   0  0  0  0  0  0
   -5.3781    1.7124   -0.4547 C   0  0  0  0  0  0
   -5.9525    1.9924    0.9424 C   0  0  0  0  0  0
   -5.6810    0.9084    1.8754 N   0  0  0  0  0  0
   -0.2677    0.7823   -0.0052 C   0  0  2  0  0  0
   -1.1888   -0.1961    0.4302 O   0  0  0  0  0  0
    1.1100    0.5308    0.6327 C   0  0  0  0  0  0
    1.7154   -0.7131    0.1150 N   0  3  0  0  0  0
    3.0959   -0.9694    0.5767 C   0  0  0  0  0  0
    3.4423   -2.4384    0.5887 C   0  0  0  0  0  0
    3.1717   -1.7118    1.8909 C   0  0  0  0  0  0
    4.0911    0.0684    0.1488 C   0  0  0  0  0  0
    4.4988    0.1378   -1.1997 C   0  0  0  0  0  0
    5.4005    1.1339   -1.6331 C   0  0  0  0  0  0
    5.9055    2.0625   -0.6986 C   0  0  0  0  0  0
    5.5088    1.9966    0.6500 C   0  0  0  0  0  0
    4.6023    1.0058    1.0711 C   0  0  0  0  0  0
    5.8147    1.2209   -3.0962 C   0  0  0  0  0  0
    4.6227    1.5899   -3.9932 C   0  0  0  0  0  0
    6.5082   -0.0657   -3.5726 C   0  0  0  0  0  0
   -1.9284    2.1829    0.0747 H   0  0  0  0  0  0
   -0.1926    0.5913   -1.0736 H   0  0  0  0  0  0
   -0.6397   -4.5500    4.1475 H   0  0  0  0  0  0
   -2.3094   -4.6024    4.7121 H   0  0  0  0  0  0
   -1.0722   -3.7662    5.6678 H   0  0  0  0  0  0
   -3.6140   -2.5731    4.6030 H   0  0  0  0  0  0
   -2.4045   -1.7325    5.5597 H   0  0  0  0  0  0
   -4.9785   -1.1950    3.2687 H   0  0  0  0  0  0
   -3.5034    2.5747    1.7597 H   0  0  0  0  0  0
   -0.9388    0.0361    4.0980 H   0  0  0  0  0  0
    0.1946    3.4476    1.5526 H   0  0  0  0  0  0
   -0.8417    4.1975   -0.6664 H   0  0  0  0  0  0
    0.7374    3.5084   -0.5214 H   0  0  0  0  0  0
    1.7205    3.3138   -2.8026 H   0  0  0  0  0  0
    0.9501    2.1375   -3.8652 H   0  0  0  0  0  0
    1.4824    1.6551   -2.2558 H   0  0  0  0  0  0
   -1.3141    2.6277   -4.0756 H   0  0  0  0  0  0
   -2.8622    3.6057   -1.5861 H   0  0  0  0  0  0
   -3.0908    4.1836   -3.2285 H   0  0  0  0  0  0
   -5.2846    3.4406   -3.4988 H   0  0  0  0  0  0
   -5.6560    1.7556   -3.2484 H   0  0  0  0  0  0
   -5.0971    3.7804   -1.0209 H   0  0  0  0  0  0
   -6.6497    3.1307   -1.4607 H   0  0  0  0  0  0
   -5.8465    0.8170   -0.8650 H   0  0  0  0  0  0
   -4.3121    1.4952   -0.3846 H   0  0  0  0  0  0
   -5.5787    2.9358    1.3404 H   0  0  0  0  0  0
   -7.0342    2.1078    0.8714 H   0  0  0  0  0  0
   -6.3800    0.1872    1.9839 H   0  0  0  0  0  0
   -2.0200   -0.0382    0.0079 H   0  0  0  0  0  0
    1.7634    1.3704    0.3954 H   0  0  0  0  0  0
    1.0415    0.4734    1.7198 H   0  0  0  0  0  0
    1.1305   -1.4879    0.3941 H   0  0  0  0  0  0
    2.6913   -3.1558    0.2627 H   0  0  0  0  0  0
    4.4742   -2.7208    0.3887 H   0  0  0  0  0  0
    4.0265   -1.5264    2.5382 H   0  0  0  0  0  0
    2.2428   -1.9538    2.4046 H   0  0  0  0  0  0
    4.1014   -0.5722   -1.9102 H   0  0  0  0  0  0
    6.5957    2.8326   -1.0114 H   0  0  0  0  0  0
    5.8956    2.7117    1.3613 H   0  0  0  0  0  0
    4.2945    0.9727    2.1061 H   0  0  0  0  0  0
    6.5444    2.0268   -3.1859 H   0  0  0  0  0  0
    4.1791    2.5366   -3.6833 H   0  0  0  0  0  0
    3.8417    0.8300   -3.9594 H   0  0  0  0  0  0
    4.9333    1.6979   -5.0327 H   0  0  0  0  0  0
    7.3762   -0.2944   -2.9536 H   0  0  0  0  0  0
    6.8565    0.0360   -4.6007 H   0  0  0  0  0  0
    5.8376   -0.9245   -3.5372 H   0  0  0  0  0  0
    1.7251   -0.6655   -0.8938 H   0  0  0  0  0  0
  1  2  1  0  0  0
  1 43  1  0  0  0
  1 44  1  0  0  0
  1 45  1  0  0  0
  2  3  1  0  0  0
  3  4  1  0  0  0
  3 46  1  0  0  0
  3 47  1  0  0  0
  4  9  1  0  0  0
  4  5  2  0  0  0
  5  6  1  0  0  0
  5 48  1  0  0  0
  6 24  1  0  0  0
  6  7  2  0  0  0
  7  8  1  0  0  0
  7 49  1  0  0  0
  8  9  2  0  0  0
  8 10  1  0  0  0
  9 50  1  0  0  0
 10 11  2  0  0  0
 10 12  1  0  0  0
 12 13  1  0  0  0
 12 51  1  0  0  0
 13 41  1  0  0  0
 13 14  1  0  0  0
 13 25  1  0  0  0
 14 15  1  0  0  0
 14 52  1  0  0  0
 14 53  1  0  0  0
 15 16  1  0  0  0
 15 17  2  0  0  0
 16 54  1  0  0  0
 16 55  1  0  0  0
 16 56  1  0  0  0
 17 18  1  0  0  0
 17 57  1  0  0  0
 18 19  1  0  0  0
 18 58  1  0  0  0
 18 59  1  0  0  0
 19 20  1  0  0  0
 20 21  1  0  0  0
 20 60  1  0  0  0
 20 61  1  0  0  0
 21 22  1  0  0  0
 21 62  1  0  0  0
 21 63  1  0  0  0
 22 23  1  0  0  0
 22 64  1  0  0  0
 22 65  1  0  0  0
 23 24  1  0  0  0
 23 66  1  0  0  0
 23 67  1  0  0  0
 24 68  1  0  0  0
 25 42  1  0  0  0
 25 26  1  0  0  0
 25 27  1  0  0  0
 26 69  1  0  0  0
 27 28  1  0  0  0
 27 70  1  0  0  0
 27 71  1  0  0  0
 28 29  1  0  0  0
 28 72  1  0  0  0
 28 88  1  0  0  0
 29 31  1  0  0  0
 29 30  1  0  0  0
 29 32  1  0  0  0
 30 31  1  0  0  0
 30 73  1  0  0  0
 30 74  1  0  0  0
 31 75  1  0  0  0
 31 76  1  0  0  0
 32 37  1  0  0  0
 32 33  2  0  0  0
 33 34  1  0  0  0
 33 77  1  0  0  0
 34 35  2  0  0  0
 34 38  1  0  0  0
 35 36  1  0  0  0
 35 78  1  0  0  0
 36 37  2  0  0  0
 36 79  1  0  0  0
 37 80  1  0  0  0
 38 39  1  0  0  0
 38 40  1  0  0  0
 38 81  1  0  0  0
 39 82  1  0  0  0
 39 83  1  0  0  0
 39 84  1  0  0  0
 40 85  1  0  0  0
 40 86  1  0  0  0
 40 87  1  0  0  0
M  CHG  1  28   1
M  END
> <s_m_source_file>
BACE_77.smi

> <i_m_source_file_index>
1

> <i_lp_mmshare_version>
42013

> <i_f3d_flags>
0

> <s_epik_input>
W2NIXTFbY0hdW2NIXWMoW0NIXShbQ0gzXSlbQ0gzXSlbY0hdYzFDMihbQ0gyXVtDSDJdMilbTkhdW0NIMl1bQ0BASF0oW09IXSlbQ0BASF0oW05IXUMoPU8pYyhbY0hdMylbY0hdYyhbY0hdYzM0KVtDSDJdT1tDSDNdKVtDSDJdL0MoW0NIM10pPVtDSF1cW0NIMl1PW0NIMl1bQ0gyXVtDSDJdW0NIMl1bTkhdNA==

> <s_epik_cmdline>
J2VwaWtfcHl0aG9uJywgJy1waCcsICc3LjAnLCAnLXRuJywgJzgnLCAnLW1hJywgJzIwMCcsICctaW1hZScsICc8aW5maWxlLm1hZT4nLCAnLW9tYWUnLCAnPG91dGZpbGUubWFlPic=

> <r_epik_Ionization_Penalty>
0.505647

> <r_epik_Ionization_Penalty_Charging>
0.505278

> <r_epik_Ionization_Penalty_Neutral>
0.000368292

> <r_epik_State_Penalty>
0.512087

> <r_epik_Charging_Adjusted_Penalty>
1.01737

> <i_epik_Tot_Q>
1

> <i_epik_Tot_abs_Q>
1

> <s_lp_Force_Field>
OPLS_2005

> <r_lp_Energy>
40.7027

> <b_lp_Chiralities_Consistent>
1

> <s_lp_Variant>
BACE_77.smi:1-2

$$$$
