BACE_10.smi:1
                    3D
 Structure written by MMmdl.
 86 88  0  0  1  0            999 V2000
    0.8804    1.6407   -6.0075 C   0  0  0  0  0  0
    0.4262    2.0130   -4.7174 O   0  0  0  0  0  0
    0.0187    3.3719   -4.6602 C   0  0  0  0  0  0
   -0.5252    3.7664   -3.2988 C   0  0  0  0  0  0
   -0.5258    5.1233   -2.9156 C   0  0  0  0  0  0
   -1.0569    5.5215   -1.6719 C   0  0  0  0  0  0
   -1.6080    4.5443   -0.8128 C   0  0  0  0  0  0
   -1.5853    3.1814   -1.1726 C   0  0  0  0  0  0
   -1.0648    2.7981   -2.4271 C   0  0  0  0  0  0
   -2.1633    2.1622   -0.2384 C   0  0  0  0  0  0
   -3.3467    2.2349    0.0844 O   0  0  0  0  0  0
   -1.3642    1.1884    0.2357 N   0  0  0  0  0  0
    0.0917    1.0379    0.1392 C   0  0  1  0  0  0
    0.7943    1.7215    1.3443 C   0  0  0  0  0  0
    1.4169    3.1040    1.0378 C   0  0  2  0  0  0
    2.7000    2.9648    0.1956 C   0  0  0  0  0  0
    1.6607    3.8795    2.3519 C   0  0  0  0  0  0
    2.3256    5.2579    2.1983 C   0  0  0  0  0  0
    1.6047    6.0605    1.2768 O   0  0  0  0  0  0
    2.1065    7.3856    1.2013 C   0  0  0  0  0  0
    1.4291    8.1705    0.0666 C   0  0  0  0  0  0
   -0.0640    8.4808    0.2944 C   0  0  0  0  0  0
   -1.0055    7.2887    0.0616 C   0  0  0  0  0  0
   -1.0191    6.8823   -1.3384 N   0  0  0  0  0  0
    0.4154   -0.4690   -0.0269 C   0  0  2  0  0  0
    0.1830   -1.1470    1.1930 O   0  0  0  0  0  0
    1.8718   -0.7652   -0.4527 C   0  0  0  0  0  0
    2.2484   -0.1702   -1.7569 N   0  3  0  0  0  0
    1.5278   -0.6628   -2.9517 C   0  0  0  0  0  0
    1.7231   -2.1506   -3.1789 C   0  0  0  0  0  0
    0.7040   -3.0629   -2.8324 C   0  0  0  0  0  0
    0.8866   -4.4485   -3.0292 C   0  0  0  0  0  0
    2.1001   -4.9150   -3.5806 C   0  0  0  0  0  0
    3.1159   -4.0070   -3.9340 C   0  0  0  0  0  0
    2.9282   -2.6265   -3.7348 C   0  0  0  0  0  0
   -0.2170   -5.4254   -2.6433 C   0  0  0  0  0  0
    0.2235   -6.3470   -1.4956 C   0  0  0  0  0  0
   -0.7186   -6.2265   -3.8551 C   0  0  0  0  0  0
    0.4328    1.5167   -0.7737 H   0  0  0  0  0  0
    0.6994    3.6803    0.4564 H   0  0  0  0  0  0
   -0.2634   -0.9031   -0.7615 H   0  0  0  0  0  0
    1.1625    0.5880   -6.0109 H   0  0  0  0  0  0
    1.7537    2.2244   -6.3008 H   0  0  0  0  0  0
    0.0990    1.7783   -6.7562 H   0  0  0  0  0  0
    0.8655    4.0152   -4.9054 H   0  0  0  0  0  0
   -0.7592    3.5597   -5.4022 H   0  0  0  0  0  0
   -0.1150    5.8657   -3.5850 H   0  0  0  0  0  0
   -2.0405    4.8266    0.1361 H   0  0  0  0  0  0
   -1.0822    1.7575   -2.7175 H   0  0  0  0  0  0
   -1.8165    0.5114    0.8335 H   0  0  0  0  0  0
    0.0765    1.8165    2.1610 H   0  0  0  0  0  0
    1.5790    1.0822    1.7483 H   0  0  0  0  0  0
    3.4806    2.4381    0.7451 H   0  0  0  0  0  0
    3.0947    3.9379   -0.0960 H   0  0  0  0  0  0
    2.5183    2.4201   -0.7290 H   0  0  0  0  0  0
    0.7047    4.0164    2.8592 H   0  0  0  0  0  0
    2.2709    3.2741    3.0233 H   0  0  0  0  0  0
    2.3549    5.7481    3.1727 H   0  0  0  0  0  0
    3.3603    5.1500    1.8706 H   0  0  0  0  0  0
    1.9618    7.8961    2.1545 H   0  0  0  0  0  0
    3.1809    7.3558    1.0128 H   0  0  0  0  0  0
    1.9540    9.1210   -0.0334 H   0  0  0  0  0  0
    1.5759    7.6546   -0.8828 H   0  0  0  0  0  0
   -0.2023    8.8585    1.3079 H   0  0  0  0  0  0
   -0.3621    9.2954   -0.3668 H   0  0  0  0  0  0
   -0.7221    6.4676    0.7173 H   0  0  0  0  0  0
   -2.0219    7.5689    0.3387 H   0  0  0  0  0  0
   -0.5779    7.5091   -1.9959 H   0  0  0  0  0  0
    0.2958   -2.0750    1.0522 H   0  0  0  0  0  0
    2.5675   -0.3815    0.2933 H   0  0  0  0  0  0
    2.0418   -1.8419   -0.4884 H   0  0  0  0  0  0
    2.1124    0.8289   -1.6976 H   0  0  0  0  0  0
    0.4673   -0.4175   -2.8877 H   0  0  0  0  0  0
    1.9136   -0.1268   -3.8180 H   0  0  0  0  0  0
   -0.2205   -2.6974   -2.4099 H   0  0  0  0  0  0
    2.2575   -5.9723   -3.7356 H   0  0  0  0  0  0
    4.0406   -4.3707   -4.3571 H   0  0  0  0  0  0
    3.7132   -1.9358   -4.0061 H   0  0  0  0  0  0
   -1.0628   -4.8419   -2.2770 H   0  0  0  0  0  0
    0.5190   -5.7681   -0.6199 H   0  0  0  0  0  0
    1.0696   -6.9719   -1.7829 H   0  0  0  0  0  0
   -0.5875   -7.0099   -1.1925 H   0  0  0  0  0  0
   -1.0798   -5.5621   -4.6405 H   0  0  0  0  0  0
   -1.5430   -6.8830   -3.5758 H   0  0  0  0  0  0
    0.0672   -6.8504   -4.2815 H   0  0  0  0  0  0
    3.2324   -0.3462   -1.9015 H   0  0  0  0  0  0
  1  2  1  0  0  0
  1 42  1  0  0  0
  1 43  1  0  0  0
  1 44  1  0  0  0
  2  3  1  0  0  0
  3  4  1  0  0  0
  3 45  1  0  0  0
  3 46  1  0  0  0
  4  9  1  0  0  0
  4  5  2  0  0  0
  5  6  1  0  0  0
  5 47  1  0  0  0
  6 24  1  0  0  0
  6  7  2  0  0  0
  7  8  1  0  0  0
  7 48  1  0  0  0
  8  9  2  0  0  0
  8 10  1  0  0  0
  9 49  1  0  0  0
 10 11  2  0  0  0
 10 12  1  0  0  0
 12 13  1  0  0  0
 12 50  1  0  0  0
 13 39  1  0  0  0
 13 14  1  0  0  0
 13 25  1  0  0  0
 14 15  1  0  0  0
 14 51  1  0  0  0
 14 52  1  0  0  0
 15 40  1  0  0  0
 15 16  1  0  0  0
 15 17  1  0  0  0
 16 53  1  0  0  0
 16 54  1  0  0  0
 16 55  1  0  0  0
 17 18  1  0  0  0
 17 56  1  0  0  0
 17 57  1  0  0  0
 18 19  1  0  0  0
 18 58  1  0  0  0
 18 59  1  0  0  0
 19 20  1  0  0  0
 20 21  1  0  0  0
 20 60  1  0  0  0
 20 61  1  0  0  0
 21 22  1  0  0  0
 21 62  1  0  0  0
 21 63  1  0  0  0
 22 23  1  0  0  0
 22 64  1  0  0  0
 22 65  1  0  0  0
 23 24  1  0  0  0
 23 66  1  0  0  0
 23 67  1  0  0  0
 24 68  1  0  0  0
 25 41  1  0  0  0
 25 26  1  0  0  0
 25 27  1  0  0  0
 26 69  1  0  0  0
 27 28  1  0  0  0
 27 70  1  0  0  0
 27 71  1  0  0  0
 28 29  1  0  0  0
 28 72  1  0  0  0
 28 86  1  0  0  0
 29 30  1  0  0  0
 29 73  1  0  0  0
 29 74  1  0  0  0
 30 35  1  0  0  0
 30 31  2  0  0  0
 31 32  1  0  0  0
 31 75  1  0  0  0
 32 33  2  0  0  0
 32 36  1  0  0  0
 33 34  1  0  0  0
 33 76  1  0  0  0
 34 35  2  0  0  0
 34 77  1  0  0  0
 35 78  1  0  0  0
 36 37  1  0  0  0
 36 38  1  0  0  0
 36 79  1  0  0  0
 37 80  1  0  0  0
 37 81  1  0  0  0
 37 82  1  0  0  0
 38 83  1  0  0  0
 38 84  1  0  0  0
 38 85  1  0  0  0
M  CHG  1  28   1
M  END
> <s_m_source_file>
BACE_10.smi

> <i_m_source_file_index>
1

> <i_lp_mmshare_version>
42013

> <i_f3d_flags>
0

> <s_epik_input>
W2NIXTFbY0hdW2NIXWMoW0NIXShbQ0gzXSlbQ0gzXSlbY0hdYzFbQ0gyXVtOSF1bQ0gyXVtDQEBIXShbT0hdKVtDQEBIXShbTkhdQyg9TyljKFtjSF0yKVtjSF1jKFtjSF1jMjMpW0NIMl1PW0NIM10pW0NIMl1bQ0BIXShbQ0gzXSlbQ0gyXVtDSDJdT1tDSDJdW0NIMl1bQ0gyXVtDSDJdW05IXTM=

> <s_epik_cmdline>
J2VwaWtfcHl0aG9uJywgJy1waCcsICc3LjAnLCAnLXRuJywgJzgnLCAnLW1hJywgJzIwMCcsICctaW1hZScsICc8aW5maWxlLm1hZT4nLCAnLW9tYWUnLCAnPG91dGZpbGUubWFlPic=

> <r_epik_Ionization_Penalty>
0.0171353

> <r_epik_Ionization_Penalty_Charging>
0.0167304

> <r_epik_Ionization_Penalty_Neutral>
0.000404869

> <r_epik_State_Penalty>
0.0132218

> <r_epik_Charging_Adjusted_Penalty>
0.0299522

> <i_epik_Tot_Q>
1

> <i_epik_Tot_abs_Q>
1

> <s_lp_Force_Field>
OPLS_2005

> <r_lp_Energy>
40.1732

> <b_lp_Chiralities_Consistent>
1

> <s_lp_Variant>
BACE_10.smi:1-1

$$$$
BACE_10.smi:1
                    3D
 Structure written by MMmdl.
 85 87  0  0  1  0            999 V2000
   -2.2001    3.9439   -7.4345 C   0  0  0  0  0  0
   -2.0979    4.2049   -6.0458 O   0  0  0  0  0  0
   -1.4240    3.1719   -5.3477 C   0  0  0  0  0  0
   -1.2796    3.4992   -3.8752 C   0  0  0  0  0  0
   -0.4501    4.5661   -3.4719 C   0  0  0  0  0  0
   -0.3039    4.8890   -2.1070 C   0  0  0  0  0  0
   -0.9898    4.1157   -1.1429 C   0  0  0  0  0  0
   -1.7994    3.0297   -1.5358 C   0  0  0  0  0  0
   -1.9583    2.7349   -2.9048 C   0  0  0  0  0  0
   -2.5251    2.2245   -0.5014 C   0  0  0  0  0  0
   -3.7540    2.2110   -0.4904 O   0  0  0  0  0  0
   -1.8015    1.5558    0.4159 N   0  0  0  0  0  0
   -0.3904    1.1543    0.3586 C   0  0  1  0  0  0
    0.3459    1.5620    1.6654 C   0  0  0  0  0  0
    1.3753    2.7044    1.4897 C   0  0  2  0  0  0
    2.7183    2.1721    0.9590 C   0  0  0  0  0  0
    1.5443    3.5128    2.7964 C   0  0  0  0  0  0
    2.5104    4.7067    2.6936 C   0  0  0  0  0  0
    2.1865    5.4750    1.5473 O   0  0  0  0  0  0
    2.9583    6.6542    1.4085 C   0  0  0  0  0  0
    2.7611    7.2499    0.0039 C   0  0  0  0  0  0
    1.3450    7.7895   -0.2851 C   0  0  0  0  0  0
    0.2770    6.7098   -0.5344 C   0  0  0  0  0  0
    0.5279    5.9648   -1.7622 N   0  0  0  0  0  0
   -0.3444   -0.3602    0.0150 C   0  0  2  0  0  0
   -0.7246   -1.1253    1.1425 O   0  0  0  0  0  0
    1.0333   -0.8833   -0.4504 C   0  0  0  0  0  0
    1.5822   -0.1797   -1.6136 N   0  0  0  0  0  0
    0.7468   -0.1596   -2.8144 C   0  0  0  0  0  0
    1.3354    0.7005   -3.9189 C   0  0  0  0  0  0
    1.2646    0.2640   -5.2580 C   0  0  0  0  0  0
    1.7792    1.0627   -6.3022 C   0  0  0  0  0  0
    2.3694    2.3085   -5.9949 C   0  0  0  0  0  0
    2.4387    2.7514   -4.6609 C   0  0  0  0  0  0
    1.9190    1.9526   -3.6256 C   0  0  0  0  0  0
    1.6736    0.5879   -7.7456 C   0  0  0  0  0  0
    3.0478    0.5146   -8.4310 C   0  0  0  0  0  0
    0.6836    1.4504   -8.5431 C   0  0  0  0  0  0
    0.0890    1.6729   -0.4696 H   0  0  0  0  0  0
    0.9825    3.3952    0.7460 H   0  0  0  0  0  0
   -1.0782   -0.5781   -0.7619 H   0  0  0  0  0  0
   -2.7332    4.7600   -7.9220 H   0  0  0  0  0  0
   -2.7496    3.0210   -7.6248 H   0  0  0  0  0  0
   -1.2139    3.8661   -7.8934 H   0  0  0  0  0  0
   -1.9594    2.2287   -5.4682 H   0  0  0  0  0  0
   -0.4288    3.0306   -5.7692 H   0  0  0  0  0  0
    0.0728    5.1432   -4.2209 H   0  0  0  0  0  0
   -0.9046    4.3358   -0.0902 H   0  0  0  0  0  0
   -2.5919    1.9142   -3.2097 H   0  0  0  0  0  0
   -2.3346    1.1046    1.1451 H   0  0  0  0  0  0
   -0.3968    1.8541    2.4094 H   0  0  0  0  0  0
    0.8537    0.7062    2.1107 H   0  0  0  0  0  0
    3.1866    1.4911    1.6700 H   0  0  0  0  0  0
    3.4211    2.9794    0.7550 H   0  0  0  0  0  0
    2.5866    1.6383    0.0214 H   0  0  0  0  0  0
    0.5679    3.8946    3.0979 H   0  0  0  0  0  0
    1.8716    2.8539    3.6017 H   0  0  0  0  0  0
    2.4340    5.3207    3.5922 H   0  0  0  0  0  0
    3.5423    4.3598    2.6300 H   0  0  0  0  0  0
    2.6828    7.3747    2.1799 H   0  0  0  0  0  0
    4.0155    6.4209    1.5451 H   0  0  0  0  0  0
    3.4628    8.0775   -0.1052 H   0  0  0  0  0  0
    3.0503    6.5192   -0.7522 H   0  0  0  0  0  0
    1.0293    8.4228    0.5445 H   0  0  0  0  0  0
    1.3874    8.4444   -1.1562 H   0  0  0  0  0  0
    0.2198    6.0469    0.3251 H   0  0  0  0  0  0
   -0.7007    7.1847   -0.6228 H   0  0  0  0  0  0
    0.9492    6.4790   -2.5225 H   0  0  0  0  0  0
   -0.7412   -2.0369    0.8946 H   0  0  0  0  0  0
    1.7443   -0.8094    0.3731 H   0  0  0  0  0  0
    0.9526   -1.9464   -0.6803 H   0  0  0  0  0  0
    2.4824   -0.5869   -1.8469 H   0  0  0  0  0  0
    0.5960   -1.1757   -3.1807 H   0  0  0  0  0  0
   -0.2392    0.2485   -2.5969 H   0  0  0  0  0  0
    0.8038   -0.6866   -5.4844 H   0  0  0  0  0  0
    2.7602    2.9366   -6.7816 H   0  0  0  0  0  0
    2.8800    3.7103   -4.4319 H   0  0  0  0  0  0
    1.9621    2.3123   -2.6078 H   0  0  0  0  0  0
    1.2740   -0.4269   -7.7308 H   0  0  0  0  0  0
    3.7265   -0.1352   -7.8778 H   0  0  0  0  0  0
    3.5160    1.4960   -8.5102 H   0  0  0  0  0  0
    2.9588    0.1127   -9.4404 H   0  0  0  0  0  0
   -0.3042    1.4371   -8.0811 H   0  0  0  0  0  0
    0.5743    1.0808   -9.5631 H   0  0  0  0  0  0
    1.0110    2.4890   -8.6005 H   0  0  0  0  0  0
  1  2  1  0  0  0
  1 42  1  0  0  0
  1 43  1  0  0  0
  1 44  1  0  0  0
  2  3  1  0  0  0
  3  4  1  0  0  0
  3 45  1  0  0  0
  3 46  1  0  0  0
  4  9  1  0  0  0
  4  5  2  0  0  0
  5  6  1  0  0  0
  5 47  1  0  0  0
  6 24  1  0  0  0
  6  7  2  0  0  0
  7  8  1  0  0  0
  7 48  1  0  0  0
  8  9  2  0  0  0
  8 10  1  0  0  0
  9 49  1  0  0  0
 10 11  2  0  0  0
 10 12  1  0  0  0
 12 13  1  0  0  0
 12 50  1  0  0  0
 13 39  1  0  0  0
 13 14  1  0  0  0
 13 25  1  0  0  0
 14 15  1  0  0  0
 14 51  1  0  0  0
 14 52  1  0  0  0
 15 40  1  0  0  0
 15 16  1  0  0  0
 15 17  1  0  0  0
 16 53  1  0  0  0
 16 54  1  0  0  0
 16 55  1  0  0  0
 17 18  1  0  0  0
 17 56  1  0  0  0
 17 57  1  0  0  0
 18 19  1  0  0  0
 18 58  1  0  0  0
 18 59  1  0  0  0
 19 20  1  0  0  0
 20 21  1  0  0  0
 20 60  1  0  0  0
 20 61  1  0  0  0
 21 22  1  0  0  0
 21 62  1  0  0  0
 21 63  1  0  0  0
 22 23  1  0  0  0
 22 64  1  0  0  0
 22 65  1  0  0  0
 23 24  1  0  0  0
 23 66  1  0  0  0
 23 67  1  0  0  0
 24 68  1  0  0  0
 25 41  1  0  0  0
 25 26  1  0  0  0
 25 27  1  0  0  0
 26 69  1  0  0  0
 27 28  1  0  0  0
 27 70  1  0  0  0
 27 71  1  0  0  0
 28 29  1  0  0  0
 28 72  1  0  0  0
 29 30  1  0  0  0
 29 73  1  0  0  0
 29 74  1  0  0  0
 30 35  1  0  0  0
 30 31  2  0  0  0
 31 32  1  0  0  0
 31 75  1  0  0  0
 32 33  2  0  0  0
 32 36  1  0  0  0
 33 34  1  0  0  0
 33 76  1  0  0  0
 34 35  2  0  0  0
 34 77  1  0  0  0
 35 78  1  0  0  0
 36 37  1  0  0  0
 36 38  1  0  0  0
 36 79  1  0  0  0
 37 80  1  0  0  0
 37 81  1  0  0  0
 37 82  1  0  0  0
 38 83  1  0  0  0
 38 84  1  0  0  0
 38 85  1  0  0  0
M  END
> <s_m_source_file>
BACE_10.smi

> <i_m_source_file_index>
1

> <i_lp_mmshare_version>
42013

> <i_f3d_flags>
0

> <s_epik_input>
W2NIXTFbY0hdW2NIXWMoW0NIXShbQ0gzXSlbQ0gzXSlbY0hdYzFbQ0gyXVtOSF1bQ0gyXVtDQEBIXShbT0hdKVtDQEBIXShbTkhdQyg9TyljKFtjSF0yKVtjSF1jKFtjSF1jMjMpW0NIMl1PW0NIM10pW0NIMl1bQ0BIXShbQ0gzXSlbQ0gyXVtDSDJdT1tDSDJdW0NIMl1bQ0gyXVtDSDJdW05IXTM=

> <s_epik_cmdline>
J2VwaWtfcHl0aG9uJywgJy1waCcsICc3LjAnLCAnLXRuJywgJzgnLCAnLW1hJywgJzIwMCcsICctaW1hZScsICc8aW5maWxlLm1hZT4nLCAnLW9tYWUnLCAnPG91dGZpbGUubWFlPic=

> <r_epik_Ionization_Penalty>
2.12225

> <r_epik_Ionization_Penalty_Charging>
0

> <r_epik_Ionization_Penalty_Neutral>
2.12225

> <r_epik_State_Penalty>
2.2595

> <r_epik_Charging_Adjusted_Penalty>
2.2595

> <i_epik_Tot_Q>
0

> <i_epik_Tot_abs_Q>
0

> <s_lp_Force_Field>
OPLS_2005

> <r_lp_Energy>
41.2261

> <b_lp_Chiralities_Consistent>
1

> <s_lp_Variant>
BACE_10.smi:1-2

$$$$
