BACE_33.smi:1
                    3D
 Structure written by MMmdl.
 88 89  0  0  1  0            999 V2000
   -2.9645    0.5340   -5.6091 C   0  0  0  0  0  0
   -3.6668    0.5251   -4.2399 C   0  0  0  0  0  0
   -5.1933    0.5900   -4.3940 C   0  0  0  0  0  0
   -3.1611    1.6294   -3.3188 C   0  0  0  0  0  0
   -2.7726    1.3227   -1.9956 C   0  0  0  0  0  0
   -2.3196    2.3403   -1.1285 C   0  0  0  0  0  0
   -1.9255    2.0204    0.3020 C   0  0  0  0  0  0
   -0.4767    1.7642    0.4265 N   0  3  0  0  0  0
   -0.0688    0.3680    0.1648 C   0  0  0  0  0  0
    1.4598    0.1927    0.2893 C   0  0  1  0  0  0
    1.8332    0.5769    1.5993 O   0  0  0  0  0  0
    1.9387   -1.2653    0.0672 C   0  0  2  0  0  0
    3.4822   -1.4323    0.0736 C   0  0  0  0  0  0
    4.3160   -0.5898   -0.9336 C   0  0  2  0  0  0
    3.7840   -0.5831   -2.3770 C   0  0  0  0  0  0
    5.8344   -0.9122   -0.8919 C   0  0  0  0  0  0
    6.2778   -2.3924   -0.7943 C   0  0  0  0  0  0
    5.7482   -3.3744   -1.8577 C   0  0  0  0  0  0
    6.1541   -3.0640   -3.3069 C   0  0  0  0  0  0
    5.6242   -4.1337   -4.2861 C   0  0  0  0  0  0
    5.1003   -3.6069   -5.6419 C   0  0  2  0  0  0
    6.2202   -2.9428   -6.4590 C   0  0  0  0  0  0
    3.8604   -2.6855   -5.5399 C   0  0  0  0  0  0
    2.6608   -3.2934   -4.7744 C   0  0  0  0  0  0
    1.4180   -2.3846   -4.7418 C   0  0  0  0  0  0
    1.3081   -1.5274   -5.6211 O   0  0  0  0  0  0
    0.4871   -2.5111   -3.7548 N   0  0  0  0  0  0
   -0.6027   -1.5235   -3.7152 C   0  0  0  0  0  0
    0.4360   -3.5469   -2.6891 C   0  0  1  0  0  0
    0.6760   -4.9995   -3.1605 C   0  0  0  0  0  0
    1.1243   -3.1570   -1.3648 C   0  0  0  0  0  0
    1.4417   -4.0319   -0.5596 O   0  0  0  0  0  0
    1.3387   -1.8494   -1.1354 N   0  0  0  0  0  0
   -2.2492    3.6706   -1.5905 C   0  0  0  0  0  0
   -2.6378    3.9833   -2.9060 C   0  0  0  0  0  0
   -3.0967    2.9680   -3.7655 C   0  0  0  0  0  0
    1.9452    0.8630   -0.4197 H   0  0  0  0  0  0
    1.5540   -1.8485    0.9069 H   0  0  0  0  0  0
    4.2390    0.4479   -0.6076 H   0  0  0  0  0  0
    4.7858   -4.4851   -6.2075 H   0  0  0  0  0  0
   -0.6136   -3.5892   -2.3948 H   0  0  0  0  0  0
   -1.8810    0.4891   -5.4988 H   0  0  0  0  0  0
   -3.2015    1.4297   -6.1832 H   0  0  0  0  0  0
   -3.2694   -0.3245   -6.2082 H   0  0  0  0  0  0
   -3.4304   -0.4291   -3.7676 H   0  0  0  0  0  0
   -5.6895    0.5159   -3.4257 H   0  0  0  0  0  0
   -5.5604   -0.2277   -5.0148 H   0  0  0  0  0  0
   -5.5075    1.5252   -4.8584 H   0  0  0  0  0  0
   -2.8309    0.3042   -1.6399 H   0  0  0  0  0  0
   -2.1727    2.8772    0.9296 H   0  0  0  0  0  0
   -2.5042    1.1793    0.6868 H   0  0  0  0  0  0
    0.0196    2.3837   -0.1980 H   0  0  0  0  0  0
   -0.5839   -0.2965    0.8600 H   0  0  0  0  0  0
   -0.3979    0.1000   -0.8392 H   0  0  0  0  0  0
    2.7705    0.4845    1.6843 H   0  0  0  0  0  0
    3.8494   -1.2099    1.0761 H   0  0  0  0  0  0
    3.6901   -2.4912   -0.0597 H   0  0  0  0  0  0
    3.6558   -1.5935   -2.7505 H   0  0  0  0  0  0
    4.4595   -0.0576   -3.0520 H   0  0  0  0  0  0
    2.8216   -0.0785   -2.4531 H   0  0  0  0  0  0
    6.3305   -0.4472   -1.7444 H   0  0  0  0  0  0
    6.2531   -0.4041   -0.0222 H   0  0  0  0  0  0
    7.3678   -2.4222   -0.8125 H   0  0  0  0  0  0
    6.0039   -2.7751    0.1893 H   0  0  0  0  0  0
    6.1145   -4.3702   -1.6052 H   0  0  0  0  0  0
    4.6635   -3.4455   -1.7965 H   0  0  0  0  0  0
    5.7898   -2.0773   -3.5806 H   0  0  0  0  0  0
    7.2400   -3.0052   -3.3870 H   0  0  0  0  0  0
    6.4188   -4.8587   -4.4668 H   0  0  0  0  0  0
    4.8353   -4.7174   -3.8121 H   0  0  0  0  0  0
    6.5820   -2.0336   -5.9782 H   0  0  0  0  0  0
    5.8713   -2.6723   -7.4559 H   0  0  0  0  0  0
    7.0701   -3.6149   -6.5808 H   0  0  0  0  0  0
    4.1390   -1.7332   -5.0898 H   0  0  0  0  0  0
    3.5456   -2.4431   -6.5559 H   0  0  0  0  0  0
    2.3848   -4.2411   -5.2366 H   0  0  0  0  0  0
    2.9662   -3.4989   -3.7512 H   0  0  0  0  0  0
   -0.2272   -0.5044   -3.8242 H   0  0  0  0  0  0
   -1.1606   -1.5411   -2.7787 H   0  0  0  0  0  0
   -1.3092   -1.7185   -4.5225 H   0  0  0  0  0  0
    0.2299   -5.7056   -2.4591 H   0  0  0  0  0  0
    1.7308   -5.2615   -3.2219 H   0  0  0  0  0  0
    0.2164   -5.1838   -4.1319 H   0  0  0  0  0  0
    1.0603   -1.2025   -1.8590 H   0  0  0  0  0  0
   -1.9062    4.4579   -0.9351 H   0  0  0  0  0  0
   -2.5909    5.0046   -3.2548 H   0  0  0  0  0  0
   -3.4033    3.2267   -4.7680 H   0  0  0  0  0  0
   -0.2017    1.9784    1.3749 H   0  0  0  0  0  0
  1  2  1  0  0  0
  1 42  1  0  0  0
  1 43  1  0  0  0
  1 44  1  0  0  0
  2  3  1  0  0  0
  2  4  1  0  0  0
  2 45  1  0  0  0
  3 46  1  0  0  0
  3 47  1  0  0  0
  3 48  1  0  0  0
  4 36  1  0  0  0
  4  5  2  0  0  0
  5  6  1  0  0  0
  5 49  1  0  0  0
  6  7  1  0  0  0
  6 34  2  0  0  0
  7  8  1  0  0  0
  7 50  1  0  0  0
  7 51  1  0  0  0
  8  9  1  0  0  0
  8 52  1  0  0  0
  8 88  1  0  0  0
  9 10  1  0  0  0
  9 53  1  0  0  0
  9 54  1  0  0  0
 10 37  1  0  0  0
 10 11  1  0  0  0
 10 12  1  0  0  0
 11 55  1  0  0  0
 12 38  1  0  0  0
 12 33  1  0  0  0
 12 13  1  0  0  0
 13 14  1  0  0  0
 13 56  1  0  0  0
 13 57  1  0  0  0
 14 39  1  0  0  0
 14 15  1  0  0  0
 14 16  1  0  0  0
 15 58  1  0  0  0
 15 59  1  0  0  0
 15 60  1  0  0  0
 16 17  1  0  0  0
 16 61  1  0  0  0
 16 62  1  0  0  0
 17 18  1  0  0  0
 17 63  1  0  0  0
 17 64  1  0  0  0
 18 19  1  0  0  0
 18 65  1  0  0  0
 18 66  1  0  0  0
 19 20  1  0  0  0
 19 67  1  0  0  0
 19 68  1  0  0  0
 20 21  1  0  0  0
 20 69  1  0  0  0
 20 70  1  0  0  0
 21 40  1  0  0  0
 21 22  1  0  0  0
 21 23  1  0  0  0
 22 71  1  0  0  0
 22 72  1  0  0  0
 22 73  1  0  0  0
 23 24  1  0  0  0
 23 74  1  0  0  0
 23 75  1  0  0  0
 24 25  1  0  0  0
 24 76  1  0  0  0
 24 77  1  0  0  0
 25 26  2  0  0  0
 25 27  1  0  0  0
 27 28  1  0  0  0
 27 29  1  0  0  0
 28 78  1  0  0  0
 28 79  1  0  0  0
 28 80  1  0  0  0
 29 41  1  0  0  0
 29 30  1  0  0  0
 29 31  1  0  0  0
 30 81  1  0  0  0
 30 82  1  0  0  0
 30 83  1  0  0  0
 31 32  2  0  0  0
 31 33  1  0  0  0
 33 84  1  0  0  0
 34 35  1  0  0  0
 34 85  1  0  0  0
 35 36  2  0  0  0
 35 86  1  0  0  0
 36 87  1  0  0  0
M  CHG  1   8   1
M  END
> <s_m_source_file>
BACE_33.smi

> <i_m_source_file_index>
1

> <i_lp_mmshare_version>
42013

> <i_f3d_flags>
0

> <s_epik_input>
W0NIM11bQ0hdKFtDSDNdKWMxW2NIXWMoW2NIXVtjSF1bY0hdMSlbQ0gyXVtOSF1bQ0gyXVtDQEBIXShbT0hdKVtDQEBIXTJbQ0gyXVtDQEhdKFtDSDNdKVtDSDJdW0NIMl1bQ0gyXVtDSDJdW0NIMl1bQ0BIXShbQ0gzXSlbQ0gyXVtDSDJdQyg9TylOKFtDSDNdKVtDQEBIXShbQ0gzXSlDKD1PKVtOSF0y

> <s_epik_cmdline>
J2VwaWtfcHl0aG9uJywgJy1waCcsICc3LjAnLCAnLXRuJywgJzgnLCAnLW1hJywgJzIwMCcsICctaW1hZScsICc8aW5maWxlLm1hZT4nLCAnLW9tYWUnLCAnPG91dGZpbGUubWFlPic=

> <r_epik_Ionization_Penalty>
0.0181596

> <r_epik_Ionization_Penalty_Charging>
0.0181594

> <r_epik_Ionization_Penalty_Neutral>
2.94067e-07

> <r_epik_State_Penalty>
0.0144341

> <r_epik_Charging_Adjusted_Penalty>
0.0325934

> <i_epik_Tot_Q>
1

> <i_epik_Tot_abs_Q>
1

> <s_lp_Force_Field>
OPLS_2005

> <r_lp_Energy>
39.0831

> <b_lp_Chiralities_Consistent>
1

> <s_lp_Variant>
BACE_33.smi:1-1

$$$$
BACE_33.smi:1
                    3D
 Structure written by MMmdl.
 87 88  0  0  1  0            999 V2000
   -1.0642    2.9757   -4.2412 C   0  0  0  0  0  0
   -2.4711    3.3201   -3.7264 C   0  0  0  0  0  0
   -2.4913    4.6630   -2.9788 C   0  0  0  0  0  0
   -3.0449    2.1928   -2.8780 C   0  0  0  0  0  0
   -2.4435    1.8412   -1.6499 C   0  0  0  0  0  0
   -2.9511    0.7713   -0.8823 C   0  0  0  0  0  0
   -2.2705    0.3668    0.4117 C   0  0  0  0  0  0
   -0.8400    0.1398    0.2313 N   0  0  0  0  0  0
   -0.1591   -0.3030    1.4426 C   0  0  0  0  0  0
    1.3638   -0.4447    1.2336 C   0  0  1  0  0  0
    1.9302   -0.4534    2.5289 O   0  0  0  0  0  0
    1.8167   -1.7423    0.5079 C   0  0  2  0  0  0
    3.3608   -1.8896    0.4034 C   0  0  0  0  0  0
    4.1613   -0.7376   -0.2685 C   0  0  2  0  0  0
    3.6108   -0.2699   -1.6260 C   0  0  0  0  0  0
    5.6877   -1.0128   -0.3415 C   0  0  0  0  0  0
    6.1702   -2.4322   -0.7266 C   0  0  0  0  0  0
    5.6570   -3.0332   -2.0496 C   0  0  0  0  0  0
    6.0360   -2.2609   -3.3225 C   0  0  0  0  0  0
    5.5139   -2.9730   -4.5891 C   0  0  0  0  0  0
    4.9709   -2.0533   -5.7060 C   0  0  2  0  0  0
    6.0755   -1.1509   -6.2791 C   0  0  0  0  0  0
    3.7246   -1.2258   -5.3094 C   0  0  0  0  0  0
    2.5333   -2.0540   -4.7710 C   0  0  0  0  0  0
    1.2939   -1.2035   -4.4357 C   0  0  0  0  0  0
    1.1845   -0.1057   -4.9870 O   0  0  0  0  0  0
    0.3651   -1.6420   -3.5405 N   0  0  0  0  0  0
   -0.7185   -0.7122   -3.1911 C   0  0  0  0  0  0
    0.3114   -2.9655   -2.8636 C   0  0  1  0  0  0
    0.5437   -4.1866   -3.7833 C   0  0  0  0  0  0
    1.0025   -3.0342   -1.4844 C   0  0  0  0  0  0
    1.3605   -4.1244   -1.0391 O   0  0  0  0  0  0
    1.1822   -1.8844   -0.8083 N   0  0  0  0  0  0
   -4.0858    0.0672   -1.3343 C   0  0  0  0  0  0
   -4.6979    0.4213   -2.5515 C   0  0  0  0  0  0
   -4.1770    1.4775   -3.3232 C   0  0  0  0  0  0
    1.7392    0.4383    0.7160 H   0  0  0  0  0  0
    1.4596   -2.5783    1.1128 H   0  0  0  0  0  0
    4.0619    0.1306    0.3838 H   0  0  0  0  0  0
    4.6596   -2.7130   -6.5171 H   0  0  0  0  0  0
   -0.7367   -3.1017   -2.5951 H   0  0  0  0  0  0
   -1.0738    2.0518   -4.8210 H   0  0  0  0  0  0
   -0.3554    2.8460   -3.4228 H   0  0  0  0  0  0
   -0.6805    3.7651   -4.8881 H   0  0  0  0  0  0
   -3.1122    3.4339   -4.6017 H   0  0  0  0  0  0
   -3.5024    4.9166   -2.6583 H   0  0  0  0  0  0
   -2.1372    5.4720   -3.6183 H   0  0  0  0  0  0
   -1.8559    4.6425   -2.0929 H   0  0  0  0  0  0
   -1.5728    2.3792   -1.3039 H   0  0  0  0  0  0
   -2.4377    1.1517    1.1502 H   0  0  0  0  0  0
   -2.7447   -0.5361    0.7985 H   0  0  0  0  0  0
   -0.7001   -0.5484   -0.5012 H   0  0  0  0  0  0
   -0.3449    0.4279    2.2310 H   0  0  0  0  0  0
   -0.5783   -1.2468    1.7937 H   0  0  0  0  0  0
    1.6980    0.3537    2.9622 H   0  0  0  0  0  0
    3.7629   -2.0302    1.4072 H   0  0  0  0  0  0
    3.5649   -2.8317   -0.0985 H   0  0  0  0  0  0
    3.5032   -1.1043   -2.3104 H   0  0  0  0  0  0
    4.2637    0.4674   -2.0931 H   0  0  0  0  0  0
    2.6353    0.2046   -1.5259 H   0  0  0  0  0  0
    6.1604   -0.2838   -1.0004 H   0  0  0  0  0  0
    6.1046   -0.8007    0.6438 H   0  0  0  0  0  0
    7.2604   -2.4241   -0.7530 H   0  0  0  0  0  0
    5.9139   -3.1181    0.0811 H   0  0  0  0  0  0
    6.0521   -4.0461   -2.1332 H   0  0  0  0  0  0
    4.5755   -3.1508   -2.0134 H   0  0  0  0  0  0
    5.6450   -1.2485   -3.2597 H   0  0  0  0  0  0
    7.1190   -2.1512   -3.3870 H   0  0  0  0  0  0
    6.3166   -3.5915   -4.9924 H   0  0  0  0  0  0
    4.7364   -3.6886   -4.3219 H   0  0  0  0  0  0
    6.4287   -0.4315   -5.5400 H   0  0  0  0  0  0
    5.7148   -0.5884   -7.1407 H   0  0  0  0  0  0
    6.9329   -1.7388   -6.6081 H   0  0  0  0  0  0
    3.9991   -0.4621   -4.5823 H   0  0  0  0  0  0
    3.4002   -0.6767   -6.1947 H   0  0  0  0  0  0
    2.2522   -2.8008   -5.5134 H   0  0  0  0  0  0
    2.8467   -2.5804   -3.8726 H   0  0  0  0  0  0
   -0.3126    0.2388   -2.8422 H   0  0  0  0  0  0
   -1.3629   -1.0847   -2.3957 H   0  0  0  0  0  0
   -1.3538   -0.5155   -4.0558 H   0  0  0  0  0  0
    0.1034   -5.0826   -3.3443 H   0  0  0  0  0  0
    1.5974   -4.4125   -3.9373 H   0  0  0  0  0  0
    0.0738   -4.0468   -4.7571 H   0  0  0  0  0  0
    0.8664   -1.0314   -1.2467 H   0  0  0  0  0  0
   -4.4851   -0.7529   -0.7554 H   0  0  0  0  0  0
   -5.5642   -0.1226   -2.8978 H   0  0  0  0  0  0
   -4.6499    1.7326   -4.2602 H   0  0  0  0  0  0
  1  2  1  0  0  0
  1 42  1  0  0  0
  1 43  1  0  0  0
  1 44  1  0  0  0
  2  3  1  0  0  0
  2  4  1  0  0  0
  2 45  1  0  0  0
  3 46  1  0  0  0
  3 47  1  0  0  0
  3 48  1  0  0  0
  4 36  1  0  0  0
  4  5  2  0  0  0
  5  6  1  0  0  0
  5 49  1  0  0  0
  6  7  1  0  0  0
  6 34  2  0  0  0
  7  8  1  0  0  0
  7 50  1  0  0  0
  7 51  1  0  0  0
  8  9  1  0  0  0
  8 52  1  0  0  0
  9 10  1  0  0  0
  9 53  1  0  0  0
  9 54  1  0  0  0
 10 37  1  0  0  0
 10 11  1  0  0  0
 10 12  1  0  0  0
 11 55  1  0  0  0
 12 38  1  0  0  0
 12 33  1  0  0  0
 12 13  1  0  0  0
 13 14  1  0  0  0
 13 56  1  0  0  0
 13 57  1  0  0  0
 14 39  1  0  0  0
 14 15  1  0  0  0
 14 16  1  0  0  0
 15 58  1  0  0  0
 15 59  1  0  0  0
 15 60  1  0  0  0
 16 17  1  0  0  0
 16 61  1  0  0  0
 16 62  1  0  0  0
 17 18  1  0  0  0
 17 63  1  0  0  0
 17 64  1  0  0  0
 18 19  1  0  0  0
 18 65  1  0  0  0
 18 66  1  0  0  0
 19 20  1  0  0  0
 19 67  1  0  0  0
 19 68  1  0  0  0
 20 21  1  0  0  0
 20 69  1  0  0  0
 20 70  1  0  0  0
 21 40  1  0  0  0
 21 22  1  0  0  0
 21 23  1  0  0  0
 22 71  1  0  0  0
 22 72  1  0  0  0
 22 73  1  0  0  0
 23 24  1  0  0  0
 23 74  1  0  0  0
 23 75  1  0  0  0
 24 25  1  0  0  0
 24 76  1  0  0  0
 24 77  1  0  0  0
 25 26  2  0  0  0
 25 27  1  0  0  0
 27 28  1  0  0  0
 27 29  1  0  0  0
 28 78  1  0  0  0
 28 79  1  0  0  0
 28 80  1  0  0  0
 29 41  1  0  0  0
 29 30  1  0  0  0
 29 31  1  0  0  0
 30 81  1  0  0  0
 30 82  1  0  0  0
 30 83  1  0  0  0
 31 32  2  0  0  0
 31 33  1  0  0  0
 33 84  1  0  0  0
 34 35  1  0  0  0
 34 85  1  0  0  0
 35 36  2  0  0  0
 35 86  1  0  0  0
 36 87  1  0  0  0
M  END
> <s_m_source_file>
BACE_33.smi

> <i_m_source_file_index>
1

> <i_lp_mmshare_version>
42013

> <i_f3d_flags>
0

> <s_epik_input>
W0NIM11bQ0hdKFtDSDNdKWMxW2NIXWMoW2NIXVtjSF1bY0hdMSlbQ0gyXVtOSF1bQ0gyXVtDQEBIXShbT0hdKVtDQEBIXTJbQ0gyXVtDQEhdKFtDSDNdKVtDSDJdW0NIMl1bQ0gyXVtDSDJdW0NIMl1bQ0BIXShbQ0gzXSlbQ0gyXVtDSDJdQyg9TylOKFtDSDNdKVtDQEBIXShbQ0gzXSlDKD1PKVtOSF0y

> <s_epik_cmdline>
J2VwaWtfcHl0aG9uJywgJy1waCcsICc3LjAnLCAnLXRuJywgJzgnLCAnLW1hJywgJzIwMCcsICctaW1hZScsICc8aW5maWxlLm1hZT4nLCAnLW9tYWUnLCAnPG91dGZpbGUubWFlPic=

> <r_epik_Ionization_Penalty>
2.07395

> <r_epik_Ionization_Penalty_Charging>
0

> <r_epik_Ionization_Penalty_Neutral>
2.07395

> <r_epik_State_Penalty>
2.20813

> <r_epik_Charging_Adjusted_Penalty>
2.20813

> <i_epik_Tot_Q>
0

> <i_epik_Tot_abs_Q>
0

> <s_lp_Force_Field>
OPLS_2005

> <r_lp_Energy>
41.848

> <b_lp_Chiralities_Consistent>
1

> <s_lp_Variant>
BACE_33.smi:1-2

$$$$
