BACE_85.smi:1
                    3D
 Structure written by MMmdl.
 89 91  0  0  1  0            999 V2000
    0.5741    5.1180   -0.3698 C   0  0  0  0  0  0
   -0.5541    4.2632   -0.9682 C   0  0  0  0  0  0
   -1.8059    5.1030   -1.2673 C   0  0  0  0  0  0
   -0.8773    3.0646   -0.0851 C   0  0  0  0  0  0
   -0.6625    1.7553   -0.5668 C   0  0  0  0  0  0
   -0.9442    0.6383    0.2471 C   0  0  0  0  0  0
   -0.6744   -0.7649   -0.2667 C   0  0  0  0  0  0
    0.7722   -1.0632   -0.3363 N   0  3  0  0  0  0
    1.4775   -1.0603    0.9628 C   0  0  0  0  0  0
    2.9770   -1.3781    0.7855 C   0  0  1  0  0  0
    3.6011   -0.3404    0.0551 O   0  0  0  0  0  0
    3.7738   -1.6259    2.1005 C   0  0  2  0  0  0
    3.7400   -3.1274    2.4710 C   0  0  0  0  0  0
    4.4128   -3.5185    3.8110 C   0  0  2  0  0  0
    5.9072   -3.1523    3.8293 C   0  0  0  0  0  0
    4.2377   -5.0211    4.1356 C   0  0  0  0  0  0
    2.7862   -5.5334    4.2439 C   0  0  0  0  0  0
    1.9254   -4.7631    5.2574 C   0  0  0  0  0  0
    0.5436   -5.4010    5.4818 C   0  0  0  0  0  0
   -0.3131   -4.6699    6.5350 C   0  0  0  0  0  0
   -1.3227   -3.6450    5.9765 C   0  0  0  0  0  0
   -0.7346   -2.4614    5.1874 C   0  0  0  0  0  0
    0.2151   -1.5622    6.0067 C   0  0  0  0  0  0
    0.8371   -0.4254    5.1740 C   0  0  0  0  0  0
    0.2646   -0.0826    4.1380 O   0  0  0  0  0  0
    2.0164    0.1379    5.5557 N   0  0  0  0  0  0
    2.6367   -0.0889    6.8758 C   0  0  0  0  0  0
    2.7798    1.2318    7.6583 C   0  0  0  0  0  0
    3.2407    2.4078    6.7798 C   0  0  0  0  0  0
    3.7914    1.9114    5.4384 C   0  0  0  0  0  0
    2.7129    1.1110    4.6618 C   0  0  1  0  0  0
    3.3895    0.4726    3.4228 C   0  0  0  0  0  0
    4.0078    1.1901    2.6372 O   0  0  0  0  0  0
    3.2508   -0.8502    3.2260 N   0  0  0  0  0  0
   -1.4570    0.8318    1.5461 C   0  0  0  0  0  0
   -1.6745    2.1342    2.0322 C   0  0  0  0  0  0
   -1.3848    3.2472    1.2203 C   0  0  0  0  0  0
    3.0678   -2.2651    0.1571 H   0  0  0  0  0  0
    4.8183   -1.3522    1.9406 H   0  0  0  0  0  0
    3.9450   -2.9564    4.6191 H   0  0  0  0  0  0
    1.9755    1.8294    4.2982 H   0  0  0  0  0  0
    1.4733    4.5224   -0.2085 H   0  0  0  0  0  0
    0.2861    5.5527    0.5878 H   0  0  0  0  0  0
    0.8391    5.9386   -1.0372 H   0  0  0  0  0  0
   -0.1916    3.8816   -1.9236 H   0  0  0  0  0  0
   -2.5819    4.4959   -1.7351 H   0  0  0  0  0  0
   -1.5734    5.9213   -1.9494 H   0  0  0  0  0  0
   -2.2255    5.5397   -0.3608 H   0  0  0  0  0  0
   -0.2686    1.6043   -1.5614 H   0  0  0  0  0  0
   -1.1706   -1.5044    0.3632 H   0  0  0  0  0  0
   -1.1006   -0.8649   -1.2652 H   0  0  0  0  0  0
    0.8897   -1.9735   -0.7571 H   0  0  0  0  0  0
    1.3514   -0.0899    1.4428 H   0  0  0  0  0  0
    1.0114   -1.8029    1.6117 H   0  0  0  0  0  0
    3.6582    0.4243    0.6095 H   0  0  0  0  0  0
    2.6944   -3.4325    2.4977 H   0  0  0  0  0  0
    4.1970   -3.7055    1.6666 H   0  0  0  0  0  0
    6.4446   -3.6372    3.0139 H   0  0  0  0  0  0
    6.3753   -3.4608    4.7643 H   0  0  0  0  0  0
    6.0599   -2.0769    3.7397 H   0  0  0  0  0  0
    4.7599   -5.6140    3.3838 H   0  0  0  0  0  0
    4.7416   -5.2355    5.0793 H   0  0  0  0  0  0
    2.3049   -5.5182    3.2660 H   0  0  0  0  0  0
    2.8203   -6.5840    4.5342 H   0  0  0  0  0  0
    2.4543   -4.7066    6.2094 H   0  0  0  0  0  0
    1.8035   -3.7402    4.9088 H   0  0  0  0  0  0
   -0.0003   -5.4801    4.5398 H   0  0  0  0  0  0
    0.6994   -6.4257    5.8216 H   0  0  0  0  0  0
   -0.8919   -5.4231    7.0709 H   0  0  0  0  0  0
    0.3220   -4.2140    7.2948 H   0  0  0  0  0  0
   -2.0313   -4.1694    5.3345 H   0  0  0  0  0  0
   -1.9137   -3.2528    6.8050 H   0  0  0  0  0  0
   -0.2265   -2.8348    4.2976 H   0  0  0  0  0  0
   -1.5666   -1.8595    4.8195 H   0  0  0  0  0  0
   -0.3103   -1.1327    6.8600 H   0  0  0  0  0  0
    1.0091   -2.1939    6.3980 H   0  0  0  0  0  0
    2.1072   -0.7877    7.5191 H   0  0  0  0  0  0
    3.6182   -0.5361    6.7120 H   0  0  0  0  0  0
    1.8285    1.4886    8.1261 H   0  0  0  0  0  0
    3.4860    1.0822    8.4756 H   0  0  0  0  0  0
    2.3972    3.0735    6.5919 H   0  0  0  0  0  0
    3.9890    3.0020    7.3051 H   0  0  0  0  0  0
    4.1215    2.7672    4.8477 H   0  0  0  0  0  0
    4.6817    1.3040    5.6133 H   0  0  0  0  0  0
    2.7283   -1.3669    3.9186 H   0  0  0  0  0  0
   -1.6759   -0.0164    2.1782 H   0  0  0  0  0  0
   -2.0604    2.2801    3.0304 H   0  0  0  0  0  0
   -1.5527    4.2422    1.6057 H   0  0  0  0  0  0
    1.2112   -0.3763   -0.9329 H   0  0  0  0  0  0
  1  2  1  0  0  0
  1 42  1  0  0  0
  1 43  1  0  0  0
  1 44  1  0  0  0
  2  3  1  0  0  0
  2  4  1  0  0  0
  2 45  1  0  0  0
  3 46  1  0  0  0
  3 47  1  0  0  0
  3 48  1  0  0  0
  4 37  1  0  0  0
  4  5  2  0  0  0
  5  6  1  0  0  0
  5 49  1  0  0  0
  6  7  1  0  0  0
  6 35  2  0  0  0
  7  8  1  0  0  0
  7 50  1  0  0  0
  7 51  1  0  0  0
  8  9  1  0  0  0
  8 52  1  0  0  0
  8 89  1  0  0  0
  9 10  1  0  0  0
  9 53  1  0  0  0
  9 54  1  0  0  0
 10 38  1  0  0  0
 10 11  1  0  0  0
 10 12  1  0  0  0
 11 55  1  0  0  0
 12 39  1  0  0  0
 12 34  1  0  0  0
 12 13  1  0  0  0
 13 14  1  0  0  0
 13 56  1  0  0  0
 13 57  1  0  0  0
 14 40  1  0  0  0
 14 15  1  0  0  0
 14 16  1  0  0  0
 15 58  1  0  0  0
 15 59  1  0  0  0
 15 60  1  0  0  0
 16 17  1  0  0  0
 16 61  1  0  0  0
 16 62  1  0  0  0
 17 18  1  0  0  0
 17 63  1  0  0  0
 17 64  1  0  0  0
 18 19  1  0  0  0
 18 65  1  0  0  0
 18 66  1  0  0  0
 19 20  1  0  0  0
 19 67  1  0  0  0
 19 68  1  0  0  0
 20 21  1  0  0  0
 20 69  1  0  0  0
 20 70  1  0  0  0
 21 22  1  0  0  0
 21 71  1  0  0  0
 21 72  1  0  0  0
 22 23  1  0  0  0
 22 73  1  0  0  0
 22 74  1  0  0  0
 23 24  1  0  0  0
 23 75  1  0  0  0
 23 76  1  0  0  0
 24 25  2  0  0  0
 24 26  1  0  0  0
 26 31  1  0  0  0
 26 27  1  0  0  0
 27 28  1  0  0  0
 27 77  1  0  0  0
 27 78  1  0  0  0
 28 29  1  0  0  0
 28 79  1  0  0  0
 28 80  1  0  0  0
 29 30  1  0  0  0
 29 81  1  0  0  0
 29 82  1  0  0  0
 30 31  1  0  0  0
 30 83  1  0  0  0
 30 84  1  0  0  0
 31 41  1  0  0  0
 31 32  1  0  0  0
 32 33  2  0  0  0
 32 34  1  0  0  0
 34 85  1  0  0  0
 35 36  1  0  0  0
 35 86  1  0  0  0
 36 37  2  0  0  0
 36 87  1  0  0  0
 37 88  1  0  0  0
M  CHG  1   8   1
M  END
> <s_m_source_file>
BACE_85.smi

> <i_m_source_file_index>
1

> <i_lp_mmshare_version>
42013

> <i_f3d_flags>
0

> <s_epik_input>
W0NIM11bQ0hdKFtDSDNdKWMxW2NIXWMoW2NIXVtjSF1bY0hdMSlbQ0gyXVtOSF1bQ0gyXVtDQEBIXShbT0hdKVtDQEBIXShbTkhdQyg9TylbQ0BASF0oTjIzKVtDSDJdW0NIMl1bQ0gyXVtDSDJdMylbQ0gyXVtDQEhdKFtDSDNdKVtDSDJdW0NIMl1bQ0gyXVtDSDJdW0NIMl1bQ0gyXVtDSDJdW0NIMl1DMj1P

> <s_epik_cmdline>
J2VwaWtfcHl0aG9uJywgJy1waCcsICc3LjAnLCAnLXRuJywgJzgnLCAnLW1hJywgJzIwMCcsICctaW1hZScsICc8aW5maWxlLm1hZT4nLCAnLW9tYWUnLCAnPG91dGZpbGUubWFlPic=

> <r_epik_Ionization_Penalty>
0.0180904

> <r_epik_Ionization_Penalty_Charging>
0.0180901

> <r_epik_Ionization_Penalty_Neutral>
2.84841e-07

> <r_epik_State_Penalty>
0.0143751

> <r_epik_Charging_Adjusted_Penalty>
0.0324652

> <i_epik_Tot_Q>
1

> <i_epik_Tot_abs_Q>
1

> <s_lp_Force_Field>
OPLS_2005

> <r_lp_Energy>
44.4774

> <b_lp_Chiralities_Consistent>
1

> <s_lp_Variant>
BACE_85.smi:1-1

$$$$
BACE_85.smi:1
                    3D
 Structure written by MMmdl.
 88 90  0  0  1  0            999 V2000
    1.1576    4.6194    2.2822 C   0  0  0  0  0  0
   -0.3297    4.4311    1.9433 C   0  0  0  0  0  0
   -1.1267    3.9164    3.1523 C   0  0  0  0  0  0
   -0.5158    3.5357    0.7252 C   0  0  0  0  0  0
   -0.0984    2.1872    0.7563 C   0  0  0  0  0  0
   -0.2585    1.3580   -0.3744 C   0  0  0  0  0  0
    0.1981   -0.0902   -0.3407 C   0  0  0  0  0  0
    1.6329   -0.2237   -0.0956 N   0  0  0  0  0  0
    1.9618   -0.6862    1.2519 C   0  0  0  0  0  0
    3.4846   -0.6604    1.4962 C   0  0  1  0  0  0
    3.8495    0.7015    1.6233 O   0  0  0  0  0  0
    3.9412   -1.4013    2.7822 C   0  0  2  0  0  0
    5.4813   -1.3732    2.9453 C   0  0  0  0  0  0
    6.0522   -2.1496    4.1590 C   0  0  2  0  0  0
    5.4955   -1.6170    5.4912 C   0  0  0  0  0  0
    7.5992   -2.1233    4.1922 C   0  0  0  0  0  0
    8.3219   -2.7211    2.9666 C   0  0  0  0  0  0
    7.9413   -4.1800    2.6702 C   0  0  0  0  0  0
    8.7817   -4.8115    1.5458 C   0  0  0  0  0  0
    8.4639   -6.2996    1.2900 C   0  0  0  0  0  0
    7.4375   -6.5836    0.1722 C   0  0  0  0  0  0
    6.0345   -5.9767    0.3556 C   0  0  0  0  0  0
    5.2921   -6.4598    1.6197 C   0  0  0  0  0  0
    3.9423   -5.7480    1.8344 C   0  0  0  0  0  0
    3.3865   -5.2513    0.8528 O   0  0  0  0  0  0
    3.4128   -5.6397    3.0847 N   0  0  0  0  0  0
    3.9164   -6.3911    4.2509 C   0  0  0  0  0  0
    2.8647   -7.4071    4.7402 C   0  0  0  0  0  0
    1.4312   -6.8495    4.6888 C   0  0  0  0  0  0
    1.4469   -5.3181    4.6098 C   0  0  0  0  0  0
    2.1787   -4.8321    3.3247 C   0  0  1  0  0  0
    2.4508   -3.3090    3.4484 C   0  0  0  0  0  0
    1.7107   -2.6048    4.1370 O   0  0  0  0  0  0
    3.4928   -2.7946    2.7719 N   0  0  0  0  0  0
   -0.8512    1.8832   -1.5413 C   0  0  0  0  0  0
   -1.2739    3.2257   -1.5779 C   0  0  0  0  0  0
   -1.1058    4.0501   -0.4490 C   0  0  0  0  0  0
    4.0010   -1.0865    0.6345 H   0  0  0  0  0  0
    3.4998   -0.8852    3.6362 H   0  0  0  0  0  0
    5.7437   -3.1926    4.0884 H   0  0  0  0  0  0
    1.4896   -4.9770    2.4908 H   0  0  0  0  0  0
    1.7012    5.0385    1.4348 H   0  0  0  0  0  0
    1.6337    3.6753    2.5486 H   0  0  0  0  0  0
    1.2846    5.3014    3.1232 H   0  0  0  0  0  0
   -0.7277    5.4157    1.6944 H   0  0  0  0  0  0
   -2.1878    3.8350    2.9148 H   0  0  0  0  0  0
   -1.0311    4.5941    4.0010 H   0  0  0  0  0  0
   -0.7814    2.9339    3.4752 H   0  0  0  0  0  0
    0.3499    1.7900    1.6538 H   0  0  0  0  0  0
   -0.3839   -0.6373    0.4025 H   0  0  0  0  0  0
   -0.0398   -0.5471   -1.3016 H   0  0  0  0  0  0
    2.0785    0.6765   -0.2452 H   0  0  0  0  0  0
    1.4560   -0.0871    2.0090 H   0  0  0  0  0  0
    1.5786   -1.6997    1.3606 H   0  0  0  0  0  0
    3.3908    1.0663    2.3645 H   0  0  0  0  0  0
    5.9124   -1.7773    2.0296 H   0  0  0  0  0  0
    5.8251   -0.3400    3.0036 H   0  0  0  0  0  0
    5.7079   -0.5544    5.6134 H   0  0  0  0  0  0
    5.9337   -2.1431    6.3397 H   0  0  0  0  0  0
    4.4164   -1.7529    5.5603 H   0  0  0  0  0  0
    7.9360   -1.0945    4.3260 H   0  0  0  0  0  0
    7.9388   -2.6610    5.0786 H   0  0  0  0  0  0
    8.1441   -2.1067    2.0842 H   0  0  0  0  0  0
    9.3961   -2.6664    3.1473 H   0  0  0  0  0  0
    8.0519   -4.7721    3.5795 H   0  0  0  0  0  0
    6.8885   -4.2149    2.4024 H   0  0  0  0  0  0
    8.6798   -4.2385    0.6234 H   0  0  0  0  0  0
    9.8318   -4.7335    1.8297 H   0  0  0  0  0  0
    9.3923   -6.7906    0.9961 H   0  0  0  0  0  0
    8.1704   -6.7912    2.2177 H   0  0  0  0  0  0
    7.8459   -6.2259   -0.7737 H   0  0  0  0  0  0
    7.3386   -7.6636    0.0578 H   0  0  0  0  0  0
    6.1099   -4.8888    0.3550 H   0  0  0  0  0  0
    5.4414   -6.2287   -0.5247 H   0  0  0  0  0  0
    5.1265   -7.5367    1.5774 H   0  0  0  0  0  0
    5.9421   -6.2658    2.4681 H   0  0  0  0  0  0
    4.8472   -6.9300    4.0961 H   0  0  0  0  0  0
    4.1364   -5.6709    5.0405 H   0  0  0  0  0  0
    2.9158   -8.3155    4.1386 H   0  0  0  0  0  0
    3.1110   -7.7052    5.7599 H   0  0  0  0  0  0
    0.9169   -7.2433    3.8111 H   0  0  0  0  0  0
    0.8626   -7.1864    5.5561 H   0  0  0  0  0  0
    0.4217   -4.9453    4.6168 H   0  0  0  0  0  0
    1.9189   -4.9212    5.5110 H   0  0  0  0  0  0
    4.0348   -3.4314    2.2054 H   0  0  0  0  0  0
   -0.9831    1.2596   -2.4135 H   0  0  0  0  0  0
   -1.7265    3.6243   -2.4739 H   0  0  0  0  0  0
   -1.4319    5.0791   -0.4903 H   0  0  0  0  0  0
  1  2  1  0  0  0
  1 42  1  0  0  0
  1 43  1  0  0  0
  1 44  1  0  0  0
  2  3  1  0  0  0
  2  4  1  0  0  0
  2 45  1  0  0  0
  3 46  1  0  0  0
  3 47  1  0  0  0
  3 48  1  0  0  0
  4 37  1  0  0  0
  4  5  2  0  0  0
  5  6  1  0  0  0
  5 49  1  0  0  0
  6  7  1  0  0  0
  6 35  2  0  0  0
  7  8  1  0  0  0
  7 50  1  0  0  0
  7 51  1  0  0  0
  8  9  1  0  0  0
  8 52  1  0  0  0
  9 10  1  0  0  0
  9 53  1  0  0  0
  9 54  1  0  0  0
 10 38  1  0  0  0
 10 11  1  0  0  0
 10 12  1  0  0  0
 11 55  1  0  0  0
 12 39  1  0  0  0
 12 34  1  0  0  0
 12 13  1  0  0  0
 13 14  1  0  0  0
 13 56  1  0  0  0
 13 57  1  0  0  0
 14 40  1  0  0  0
 14 15  1  0  0  0
 14 16  1  0  0  0
 15 58  1  0  0  0
 15 59  1  0  0  0
 15 60  1  0  0  0
 16 17  1  0  0  0
 16 61  1  0  0  0
 16 62  1  0  0  0
 17 18  1  0  0  0
 17 63  1  0  0  0
 17 64  1  0  0  0
 18 19  1  0  0  0
 18 65  1  0  0  0
 18 66  1  0  0  0
 19 20  1  0  0  0
 19 67  1  0  0  0
 19 68  1  0  0  0
 20 21  1  0  0  0
 20 69  1  0  0  0
 20 70  1  0  0  0
 21 22  1  0  0  0
 21 71  1  0  0  0
 21 72  1  0  0  0
 22 23  1  0  0  0
 22 73  1  0  0  0
 22 74  1  0  0  0
 23 24  1  0  0  0
 23 75  1  0  0  0
 23 76  1  0  0  0
 24 25  2  0  0  0
 24 26  1  0  0  0
 26 31  1  0  0  0
 26 27  1  0  0  0
 27 28  1  0  0  0
 27 77  1  0  0  0
 27 78  1  0  0  0
 28 29  1  0  0  0
 28 79  1  0  0  0
 28 80  1  0  0  0
 29 30  1  0  0  0
 29 81  1  0  0  0
 29 82  1  0  0  0
 30 31  1  0  0  0
 30 83  1  0  0  0
 30 84  1  0  0  0
 31 41  1  0  0  0
 31 32  1  0  0  0
 32 33  2  0  0  0
 32 34  1  0  0  0
 34 85  1  0  0  0
 35 36  1  0  0  0
 35 86  1  0  0  0
 36 37  2  0  0  0
 36 87  1  0  0  0
 37 88  1  0  0  0
M  END
> <s_m_source_file>
BACE_85.smi

> <i_m_source_file_index>
1

> <i_lp_mmshare_version>
42013

> <i_f3d_flags>
0

> <s_epik_input>
W0NIM11bQ0hdKFtDSDNdKWMxW2NIXWMoW2NIXVtjSF1bY0hdMSlbQ0gyXVtOSF1bQ0gyXVtDQEBIXShbT0hdKVtDQEBIXShbTkhdQyg9TylbQ0BASF0oTjIzKVtDSDJdW0NIMl1bQ0gyXVtDSDJdMylbQ0gyXVtDQEhdKFtDSDNdKVtDSDJdW0NIMl1bQ0gyXVtDSDJdW0NIMl1bQ0gyXVtDSDJdW0NIMl1DMj1P

> <s_epik_cmdline>
J2VwaWtfcHl0aG9uJywgJy1waCcsICc3LjAnLCAnLXRuJywgJzgnLCAnLW1hJywgJzIwMCcsICctaW1hZScsICc8aW5maWxlLm1hZT4nLCAnLW9tYWUnLCAnPG91dGZpbGUubWFlPic=

> <r_epik_Ionization_Penalty>
2.07618

> <r_epik_Ionization_Penalty_Charging>
0

> <r_epik_Ionization_Penalty_Neutral>
2.07618

> <r_epik_State_Penalty>
2.21053

> <r_epik_Charging_Adjusted_Penalty>
2.21053

> <i_epik_Tot_Q>
0

> <i_epik_Tot_abs_Q>
0

> <s_lp_Force_Field>
OPLS_2005

> <r_lp_Energy>
59.3208

> <b_lp_Chiralities_Consistent>
1

> <s_lp_Variant>
BACE_85.smi:1-2

$$$$
