BACE_151.smi:1
                    3D
 Structure written by MMmdl.
 81 81  0  0  1  0            999 V2000
   -4.7498   -5.0269   -1.9432 C   0  0  0  0  0  0
   -4.0292   -3.7614   -2.4214 C   0  0  0  0  0  0
   -3.1952   -3.1061   -1.3120 C   0  0  0  0  0  0
   -2.4656   -1.8436   -1.7896 C   0  0  0  0  0  0
   -1.6870   -1.2664   -0.7038 N   0  0  0  0  0  0
   -0.8867   -0.1975   -0.8250 C   0  0  0  0  0  0
   -0.7445    0.4230   -1.8792 O   0  0  0  0  0  0
   -0.1212    0.2297    0.4365 C   0  0  2  0  0  0
   -0.4858    1.6760    0.8137 C   0  0  0  0  0  0
    1.4089    0.0760    0.2604 C   0  0  0  0  0  0
    1.9052   -1.3686   -0.0047 C   0  0  2  0  0  0
    1.5851   -2.1367    1.1422 O   0  0  0  0  0  0
    3.4375   -1.4475   -0.2629 C   0  0  2  0  0  0
    3.8976   -0.7918   -1.5909 C   0  0  0  0  0  0
    5.3034   -0.1521   -1.4998 C   0  0  2  0  0  0
    5.2061    1.3097   -1.0338 C   0  0  0  0  0  0
    6.0804   -0.2696   -2.8304 C   0  0  0  0  0  0
    6.9233   -1.5560   -2.9148 C   0  0  0  0  0  0
    8.2891   -1.4079   -2.2140 C   0  0  0  0  0  0
    9.0531   -2.7300   -2.0288 C   0  0  0  0  0  0
    8.5264   -3.5576   -0.8463 C   0  0  0  0  0  0
    9.2948   -4.8694   -0.6254 C   0  0  0  0  0  0
    8.8104   -5.6991    0.5821 C   0  0  0  0  0  0
    7.3809   -6.2568    0.4405 C   0  0  0  0  0  0
    6.1463   -5.3303    1.4690 S   0  0  0  0  0  0
    6.1273   -5.9394    2.8072 O   0  0  0  0  0  0
    6.3974   -3.8871    1.3407 O   0  0  0  0  0  0
    4.5485   -5.7276    0.6283 C   0  0  0  0  0  0
    4.4818   -5.1304   -0.7987 C   0  0  1  0  0  0
    4.1203   -6.2014   -1.8459 C   0  0  0  0  0  0
    3.5666   -3.8983   -0.8780 C   0  0  0  0  0  0
    2.5518   -3.9172   -1.5750 O   0  0  0  0  0  0
    3.9823   -2.8111   -0.2008 N   0  0  0  0  0  0
   -0.4411   -0.4067    1.2632 H   0  0  0  0  0  0
    1.3728   -1.7878   -0.8574 H   0  0  0  0  0  0
    3.9095   -0.9130    0.5627 H   0  0  0  0  0  0
    5.8765   -0.6830   -0.7381 H   0  0  0  0  0  0
    5.4665   -4.7660   -1.0823 H   0  0  0  0  0  0
   -5.3296   -5.4729   -2.7516 H   0  0  0  0  0  0
   -5.4353   -4.8050   -1.1249 H   0  0  0  0  0  0
   -4.0385   -5.7752   -1.5921 H   0  0  0  0  0  0
   -3.3836   -4.0124   -3.2639 H   0  0  0  0  0  0
   -4.7647   -3.0488   -2.7966 H   0  0  0  0  0  0
   -3.8443   -2.8551   -0.4718 H   0  0  0  0  0  0
   -2.4662   -3.8255   -0.9358 H   0  0  0  0  0  0
   -1.8028   -2.0869   -2.6217 H   0  0  0  0  0  0
   -3.1837   -1.1063   -2.1517 H   0  0  0  0  0  0
   -1.7465   -1.7193    0.1968 H   0  0  0  0  0  0
   -1.5638    1.7979    0.9278 H   0  0  0  0  0  0
   -0.1482    2.3864    0.0579 H   0  0  0  0  0  0
   -0.0248    1.9592    1.7601 H   0  0  0  0  0  0
    1.7234    0.7372   -0.5455 H   0  0  0  0  0  0
    1.9077    0.4592    1.1518 H   0  0  0  0  0  0
    2.0642   -1.7897    1.8789 H   0  0  0  0  0  0
    3.8781   -1.5387   -2.3854 H   0  0  0  0  0  0
    3.1906   -0.0374   -1.9314 H   0  0  0  0  0  0
    4.6746    1.9241   -1.7612 H   0  0  0  0  0  0
    6.1966    1.7435   -0.8922 H   0  0  0  0  0  0
    4.6775    1.3868   -0.0834 H   0  0  0  0  0  0
    5.3810   -0.2276   -3.6663 H   0  0  0  0  0  0
    6.7404    0.5881   -2.9670 H   0  0  0  0  0  0
    6.3567   -2.3895   -2.4987 H   0  0  0  0  0  0
    7.0967   -1.8059   -3.9618 H   0  0  0  0  0  0
    8.9029   -0.7265   -2.8042 H   0  0  0  0  0  0
    8.1693   -0.9276   -1.2424 H   0  0  0  0  0  0
    9.0188   -3.3137   -2.9495 H   0  0  0  0  0  0
   10.1049   -2.5031   -1.8510 H   0  0  0  0  0  0
    8.5762   -2.9567    0.0624 H   0  0  0  0  0  0
    7.4763   -3.7792   -1.0167 H   0  0  0  0  0  0
    9.2410   -5.4792   -1.5280 H   0  0  0  0  0  0
   10.3507   -4.6372   -0.4827 H   0  0  0  0  0  0
    9.4916   -6.5433    0.6944 H   0  0  0  0  0  0
    8.9068   -5.1239    1.5037 H   0  0  0  0  0  0
    7.0691   -6.2557   -0.6025 H   0  0  0  0  0  0
    7.3476   -7.2956    0.7691 H   0  0  0  0  0  0
    4.4531   -6.8136    0.6099 H   0  0  0  0  0  0
    3.7398   -5.3576    1.2606 H   0  0  0  0  0  0
    4.0824   -5.7807   -2.8516 H   0  0  0  0  0  0
    3.1515   -6.6557   -1.6354 H   0  0  0  0  0  0
    4.8636   -6.9990   -1.8589 H   0  0  0  0  0  0
    4.8226   -2.9182    0.3504 H   0  0  0  0  0  0
  1  2  1  0  0  0
  1 39  1  0  0  0
  1 40  1  0  0  0
  1 41  1  0  0  0
  2  3  1  0  0  0
  2 42  1  0  0  0
  2 43  1  0  0  0
  3  4  1  0  0  0
  3 44  1  0  0  0
  3 45  1  0  0  0
  4  5  1  0  0  0
  4 46  1  0  0  0
  4 47  1  0  0  0
  5  6  1  0  0  0
  5 48  1  0  0  0
  6  7  2  0  0  0
  6  8  1  0  0  0
  8 34  1  0  0  0
  8  9  1  0  0  0
  8 10  1  0  0  0
  9 49  1  0  0  0
  9 50  1  0  0  0
  9 51  1  0  0  0
 10 11  1  0  0  0
 10 52  1  0  0  0
 10 53  1  0  0  0
 11 35  1  0  0  0
 11 12  1  0  0  0
 11 13  1  0  0  0
 12 54  1  0  0  0
 13 36  1  0  0  0
 13 33  1  0  0  0
 13 14  1  0  0  0
 14 15  1  0  0  0
 14 55  1  0  0  0
 14 56  1  0  0  0
 15 37  1  0  0  0
 15 16  1  0  0  0
 15 17  1  0  0  0
 16 57  1  0  0  0
 16 58  1  0  0  0
 16 59  1  0  0  0
 17 18  1  0  0  0
 17 60  1  0  0  0
 17 61  1  0  0  0
 18 19  1  0  0  0
 18 62  1  0  0  0
 18 63  1  0  0  0
 19 20  1  0  0  0
 19 64  1  0  0  0
 19 65  1  0  0  0
 20 21  1  0  0  0
 20 66  1  0  0  0
 20 67  1  0  0  0
 21 22  1  0  0  0
 21 68  1  0  0  0
 21 69  1  0  0  0
 22 23  1  0  0  0
 22 70  1  0  0  0
 22 71  1  0  0  0
 23 24  1  0  0  0
 23 72  1  0  0  0
 23 73  1  0  0  0
 24 25  1  0  0  0
 24 74  1  0  0  0
 24 75  1  0  0  0
 25 26  2  0  0  0
 25 27  2  0  0  0
 25 28  1  0  0  0
 28 29  1  0  0  0
 28 76  1  0  0  0
 28 77  1  0  0  0
 29 38  1  0  0  0
 29 30  1  0  0  0
 29 31  1  0  0  0
 30 78  1  0  0  0
 30 79  1  0  0  0
 30 80  1  0  0  0
 31 32  2  0  0  0
 31 33  1  0  0  0
 33 81  1  0  0  0
M  END
> <s_m_source_file>
BACE_151.smi

> <i_m_source_file_index>
1

> <i_lp_mmshare_version>
42013

> <i_f3d_flags>
0

> <s_epik_input>
W0NIM11bQ0gyXVtDSDJdW0NIMl1bTkhdQyg9TylbQ0BIXShbQ0gzXSlbQ0gyXVtDQEhdKFtPSF0pW0NAQEhdKFtOSF1DKD1PKVtDQEBIXShbQ0gyXTEpW0NIM10pW0NIMl1bQ0BIXShbQ0gzXSlbQ0gyXVtDSDJdW0NIMl1bQ0gyXVtDSDJdW0NIMl1bQ0gyXVtDSDJdUzEoPU8pPU8=

> <s_epik_cmdline>
J2VwaWtfcHl0aG9uJywgJy1waCcsICc3LjAnLCAnLXRuJywgJzgnLCAnLW1hJywgJzIwMCcsICctaW1hZScsICc8aW5maWxlLm1hZT4nLCAnLW9tYWUnLCAnPG91dGZpbGUubWFlPic=

> <r_lp_tautomer_probability>
1

> <r_epik_Ionization_Penalty>
1.50195e-07

> <r_epik_Ionization_Penalty_Charging>
0

> <r_epik_Ionization_Penalty_Neutral>
1.50195e-07

> <r_epik_State_Penalty>
-0

> <r_epik_Charging_Adjusted_Penalty>
0

> <i_epik_Tot_Q>
0

> <i_epik_Tot_abs_Q>
0

> <s_lp_Force_Field>
OPLS_2005

> <r_lp_Energy>
18.351

> <b_lp_Chiralities_Consistent>
1

> <s_lp_Variant>
BACE_151.smi:1-1

$$$$
