BACE_13.smi:1
                    3D
 Structure written by MMmdl.
 77 80  0  0  1  0            999 V2000
   -1.5922    2.1379    6.0885 C   0  0  0  0  0  0
   -1.6162    1.4677    4.8403 O   0  0  0  0  0  0
   -0.7746    2.0809    3.8784 C   0  0  0  0  0  0
   -0.8612    1.2954    2.5630 C   0  0  1  0  0  0
   -0.2160    2.0648    1.3943 C   0  0  0  0  0  0
   -0.2155    1.2449    0.1643 N   0  3  0  0  0  0
    0.3395   -0.1170    0.3489 C   0  0  2  0  0  0
   -0.2782   -0.7861    1.5983 C   0  0  0  0  0  0
   -0.1635    0.0656    2.7328 O   0  0  0  0  0  0
    1.8957   -0.1481    0.2620 C   0  0  1  0  0  0
    2.4661    0.3825    1.4439 O   0  0  0  0  0  0
    2.5040   -1.5602    0.0312 C   0  0  2  0  0  0
    4.0482   -1.5628   -0.1108 C   0  0  0  0  0  0
    4.5743   -0.8208   -1.3310 C   0  0  0  0  0  0
    4.9673    0.5289   -1.2280 C   0  0  0  0  0  0
    5.4387    1.2144   -2.3632 C   0  0  0  0  0  0
    5.5119    0.5584   -3.6073 C   0  0  0  0  0  0
    5.1183   -0.7973   -3.7232 C   0  0  0  0  0  0
    4.6734   -1.4796   -2.5737 C   0  0  0  0  0  0
    5.1381   -1.5095   -4.9010 O   0  0  0  0  0  0
    5.2122   -0.7863   -6.1216 C   0  0  0  0  0  0
    4.7435   -1.6819   -7.2804 C   0  0  0  0  0  0
    3.2424   -2.0259   -7.2282 C   0  0  0  0  0  0
    2.9083   -3.2100   -6.3067 C   0  0  0  0  0  0
    1.4682   -3.4140   -6.2052 N   0  0  0  0  0  0
    0.8985   -3.8150   -4.9869 C   0  0  0  0  0  0
   -0.2123   -4.6808   -5.0320 C   0  0  0  0  0  0
   -0.8306   -5.1196   -3.8445 C   0  0  0  0  0  0
   -2.0118   -6.0727   -3.9102 C   0  0  0  0  0  0
   -3.0119   -5.6656   -4.8339 O   0  0  0  0  0  0
   -3.7563   -4.5360   -4.4053 C   0  0  0  0  0  0
   -0.3296   -4.6949   -2.5979 C   0  0  0  0  0  0
    0.7704   -3.8119   -2.5287 C   0  0  0  0  0  0
    1.3782   -3.3753   -3.7300 C   0  0  0  0  0  0
    1.3042   -3.3900   -1.1874 C   0  0  0  0  0  0
    1.1409   -4.0989   -0.1941 O   0  0  0  0  0  0
    1.9041   -2.1883   -1.1484 N   0  0  0  0  0  0
   -1.9106    1.0994    2.3345 H   0  0  0  0  0  0
   -0.0403   -0.6583   -0.5166 H   0  0  0  0  0  0
    2.1968    0.4947   -0.5657 H   0  0  0  0  0  0
    2.2772   -2.1598    0.9139 H   0  0  0  0  0  0
   -2.2493    1.6264    6.7920 H   0  0  0  0  0  0
   -1.9405    3.1669    5.9907 H   0  0  0  0  0  0
   -0.5870    2.1471    6.5122 H   0  0  0  0  0  0
   -1.1097    3.1070    3.7188 H   0  0  0  0  0  0
    0.2569    2.1237    4.2323 H   0  0  0  0  0  0
   -0.7655    2.9858    1.1983 H   0  0  0  0  0  0
    0.8031    2.3600    1.6421 H   0  0  0  0  0  0
   -1.1769    1.1433   -0.1283 H   0  0  0  0  0  0
   -1.3315   -1.0115    1.4244 H   0  0  0  0  0  0
    0.2042   -1.7389    1.8132 H   0  0  0  0  0  0
    2.1948    1.2825    1.5380 H   0  0  0  0  0  0
    4.5137   -1.1494    0.7846 H   0  0  0  0  0  0
    4.4002   -2.5941   -0.1640 H   0  0  0  0  0  0
    4.9050    1.0426   -0.2798 H   0  0  0  0  0  0
    5.7420    2.2477   -2.2809 H   0  0  0  0  0  0
    5.8784    1.1112   -4.4593 H   0  0  0  0  0  0
    4.3816   -2.5167   -2.6548 H   0  0  0  0  0  0
    4.5900    0.1098   -6.0931 H   0  0  0  0  0  0
    6.2426   -0.4694   -6.2876 H   0  0  0  0  0  0
    4.9367   -1.1475   -8.2111 H   0  0  0  0  0  0
    5.3429   -2.5918   -7.3287 H   0  0  0  0  0  0
    2.6768   -1.1429   -6.9274 H   0  0  0  0  0  0
    2.9027   -2.2697   -8.2356 H   0  0  0  0  0  0
    3.3477   -4.1199   -6.7159 H   0  0  0  0  0  0
    3.3694   -3.0745   -5.3337 H   0  0  0  0  0  0
    1.0234   -3.7725   -7.0384 H   0  0  0  0  0  0
   -0.5922   -5.0202   -5.9851 H   0  0  0  0  0  0
   -1.6365   -7.0451   -4.2291 H   0  0  0  0  0  0
   -2.4494   -6.2204   -2.9215 H   0  0  0  0  0  0
   -4.5242   -4.3045   -5.1433 H   0  0  0  0  0  0
   -3.1234   -3.6547   -4.2960 H   0  0  0  0  0  0
   -4.2541   -4.7295   -3.4544 H   0  0  0  0  0  0
   -0.7995   -5.0479   -1.6909 H   0  0  0  0  0  0
    2.2118   -2.6926   -3.6801 H   0  0  0  0  0  0
    1.9754   -1.6756   -2.0155 H   0  0  0  0  0  0
    0.2940    1.7224   -0.5657 H   0  0  0  0  0  0
  1  2  1  0  0  0
  1 42  1  0  0  0
  1 43  1  0  0  0
  1 44  1  0  0  0
  2  3  1  0  0  0
  3  4  1  0  0  0
  3 45  1  0  0  0
  3 46  1  0  0  0
  4 38  1  0  0  0
  4  9  1  0  0  0
  4  5  1  0  0  0
  5  6  1  0  0  0
  5 47  1  0  0  0
  5 48  1  0  0  0
  6  7  1  0  0  0
  6 49  1  0  0  0
  6 77  1  0  0  0
  7 39  1  0  0  0
  7  8  1  0  0  0
  7 10  1  0  0  0
  8  9  1  0  0  0
  8 50  1  0  0  0
  8 51  1  0  0  0
 10 40  1  0  0  0
 10 11  1  0  0  0
 10 12  1  0  0  0
 11 52  1  0  0  0
 12 41  1  0  0  0
 12 37  1  0  0  0
 12 13  1  0  0  0
 13 14  1  0  0  0
 13 53  1  0  0  0
 13 54  1  0  0  0
 14 19  1  0  0  0
 14 15  2  0  0  0
 15 16  1  0  0  0
 15 55  1  0  0  0
 16 17  2  0  0  0
 16 56  1  0  0  0
 17 18  1  0  0  0
 17 57  1  0  0  0
 18 19  2  0  0  0
 18 20  1  0  0  0
 19 58  1  0  0  0
 20 21  1  0  0  0
 21 22  1  0  0  0
 21 59  1  0  0  0
 21 60  1  0  0  0
 22 23  1  0  0  0
 22 61  1  0  0  0
 22 62  1  0  0  0
 23 24  1  0  0  0
 23 63  1  0  0  0
 23 64  1  0  0  0
 24 25  1  0  0  0
 24 65  1  0  0  0
 24 66  1  0  0  0
 25 26  1  0  0  0
 25 67  1  0  0  0
 26 34  1  0  0  0
 26 27  2  0  0  0
 27 28  1  0  0  0
 27 68  1  0  0  0
 28 29  1  0  0  0
 28 32  2  0  0  0
 29 30  1  0  0  0
 29 69  1  0  0  0
 29 70  1  0  0  0
 30 31  1  0  0  0
 31 71  1  0  0  0
 31 72  1  0  0  0
 31 73  1  0  0  0
 32 33  1  0  0  0
 32 74  1  0  0  0
 33 34  2  0  0  0
 33 35  1  0  0  0
 34 75  1  0  0  0
 35 36  2  0  0  0
 35 37  1  0  0  0
 37 76  1  0  0  0
M  CHG  1   6   1
M  END
> <s_m_source_file>
BACE_13.smi

> <i_m_source_file_index>
1

> <i_lp_mmshare_version>
42013

> <i_f3d_flags>
0

> <s_epik_input>
W0NIM11PW0NIMl1bQ0BIXTFbQ0gyXVtOSF1bQ0BIXShbQ0gyXU8xKVtDQEBIXShbT0hdKVtDQEhdKFtDSDJdMilbTkhdQyg9TyljKFtjSF0zKVtjSF1jKFtDSDJdT1tDSDNdKVtjSF1jM1tOSF1bQ0gyXVtDSDJdW0NIMl1bQ0gyXU9jKFtjSF00KVtjSF1bY0hdW2NIXWMyNA==

> <s_epik_cmdline>
J2VwaWtfcHl0aG9uJywgJy1waCcsICc3LjAnLCAnLXRuJywgJzgnLCAnLW1hJywgJzIwMCcsICctaW1hZScsICc8aW5maWxlLm1hZT4nLCAnLW9tYWUnLCAnPG91dGZpbGUubWFlPic=

> <r_lp_tautomer_probability>
1

> <r_epik_Ionization_Penalty>
0.116041

> <r_epik_Ionization_Penalty_Charging>
0.115702

> <r_epik_Ionization_Penalty_Neutral>
0.00033833

> <r_epik_State_Penalty>
0.105334

> <r_epik_Charging_Adjusted_Penalty>
0.221036

> <i_epik_Tot_Q>
1

> <i_epik_Tot_abs_Q>
1

> <s_lp_Force_Field>
OPLS_2005

> <r_lp_Energy>
46.0312

> <b_lp_Chiralities_Consistent>
1

> <s_lp_Variant>
BACE_13.smi:1-1

$$$$
BACE_13.smi:1
                    3D
 Structure written by MMmdl.
 76 79  0  0  1  0            999 V2000
    1.6802    3.2271    4.8517 C   0  0  0  0  0  0
    1.2044    2.4550    3.7638 O   0  0  0  0  0  0
   -0.1838    2.1759    3.8579 C   0  0  0  0  0  0
   -0.6300    1.3353    2.6533 C   0  0  1  0  0  0
   -0.2979    1.9988    1.3005 C   0  0  0  0  0  0
   -0.6432    1.1053    0.1934 N   0  0  0  0  0  0
   -0.0295   -0.2235    0.3234 C   0  0  2  0  0  0
   -0.4325   -0.8111    1.6954 C   0  0  0  0  0  0
   -0.0078    0.0567    2.7406 O   0  0  0  0  0  0
    1.5112   -0.1871    0.1184 C   0  0  1  0  0  0
    2.0152   -1.5078    0.1862 O   0  0  0  0  0  0
    1.9791    0.4838   -1.2051 C   0  0  2  0  0  0
    1.4202   -0.1187   -2.5227 C   0  0  0  0  0  0
    1.9760   -1.4782   -2.9185 C   0  0  0  0  0  0
    1.2376   -2.6505   -2.6522 C   0  0  0  0  0  0
    1.7644   -3.9114   -2.9908 C   0  0  0  0  0  0
    3.0334   -4.0067   -3.5931 C   0  0  0  0  0  0
    3.7726   -2.8372   -3.8730 C   0  0  0  0  0  0
    3.2294   -1.5766   -3.5573 C   0  0  0  0  0  0
    5.0236   -2.8955   -4.4338 O   0  0  0  0  0  0
    6.0090   -3.5339   -3.6282 C   0  0  0  0  0  0
    6.3453   -2.6562   -2.4101 C   0  0  0  0  0  0
    7.4650   -3.2282   -1.5309 C   0  0  0  0  0  0
    7.7301   -2.4038   -0.2580 C   0  0  0  0  0  0
    8.3849   -1.1302   -0.5319 N   0  0  0  0  0  0
    7.6920    0.0753   -0.7309 C   0  0  0  0  0  0
    8.4557    1.2146   -1.0567 C   0  0  0  0  0  0
    7.8363    2.4627   -1.2634 C   0  0  0  0  0  0
    8.6681    3.6791   -1.6136 C   0  0  0  0  0  0
    8.6968    3.8954   -3.0140 O   0  0  0  0  0  0
    9.4565    5.0362   -3.3727 C   0  0  0  0  0  0
    6.4373    2.5754   -1.1532 C   0  0  0  0  0  0
    5.6525    1.4445   -0.8449 C   0  0  0  0  0  0
    6.2856    0.1999   -0.6202 C   0  0  0  0  0  0
    4.1647    1.5875   -0.7164 C   0  0  0  0  0  0
    3.6716    2.5978   -0.2139 O   0  0  0  0  0  0
    3.4401    0.5771   -1.2250 N   0  0  0  0  0  0
   -1.7101    1.1946    2.7257 H   0  0  0  0  0  0
   -0.4517   -0.8704   -0.4456 H   0  0  0  0  0  0
    1.9644    0.3501    0.9524 H   0  0  0  0  0  0
    1.5962    1.5051   -1.1869 H   0  0  0  0  0  0
    2.7465    3.4154    4.7272 H   0  0  0  0  0  0
    1.5388    2.7031    5.7977 H   0  0  0  0  0  0
    1.1720    4.1907    4.9045 H   0  0  0  0  0  0
   -0.4010    1.6433    4.7852 H   0  0  0  0  0  0
   -0.7447    3.1116    3.8812 H   0  0  0  0  0  0
   -0.8441    2.9371    1.2030 H   0  0  0  0  0  0
    0.7603    2.2568    1.2546 H   0  0  0  0  0  0
   -0.3496    1.5298   -0.6806 H   0  0  0  0  0  0
   -1.5130   -0.9551    1.7490 H   0  0  0  0  0  0
    0.0120   -1.7942    1.8493 H   0  0  0  0  0  0
    1.8072   -1.8633    1.0368 H   0  0  0  0  0  0
    0.3324   -0.1721   -2.4828 H   0  0  0  0  0  0
    1.6388    0.5702   -3.3399 H   0  0  0  0  0  0
    0.2708   -2.5868   -2.1749 H   0  0  0  0  0  0
    1.1987   -4.8066   -2.7792 H   0  0  0  0  0  0
    3.4355   -4.9778   -3.8412 H   0  0  0  0  0  0
    3.7991   -0.6838   -3.7709 H   0  0  0  0  0  0
    5.6910   -4.5299   -3.3177 H   0  0  0  0  0  0
    6.9018   -3.6710   -4.2387 H   0  0  0  0  0  0
    6.6273   -1.6650   -2.7645 H   0  0  0  0  0  0
    5.4543   -2.5260   -1.7955 H   0  0  0  0  0  0
    7.1877   -4.2395   -1.2319 H   0  0  0  0  0  0
    8.3838   -3.3254   -2.1108 H   0  0  0  0  0  0
    6.8201   -2.2756    0.3262 H   0  0  0  0  0  0
    8.4068   -2.9687    0.3832 H   0  0  0  0  0  0
    9.3888   -1.1343   -0.6423 H   0  0  0  0  0  0
    9.5291    1.1324   -1.1479 H   0  0  0  0  0  0
    8.2500    4.5517   -1.1087 H   0  0  0  0  0  0
    9.6830    3.5464   -1.2348 H   0  0  0  0  0  0
    9.4525    5.1520   -4.4563 H   0  0  0  0  0  0
   10.4933    4.9386   -3.0484 H   0  0  0  0  0  0
    9.0359    5.9429   -2.9360 H   0  0  0  0  0  0
    5.9666    3.5345   -1.3173 H   0  0  0  0  0  0
    5.6763   -0.6519   -0.3612 H   0  0  0  0  0  0
    3.9365   -0.2024   -1.6320 H   0  0  0  0  0  0
  1  2  1  0  0  0
  1 42  1  0  0  0
  1 43  1  0  0  0
  1 44  1  0  0  0
  2  3  1  0  0  0
  3  4  1  0  0  0
  3 45  1  0  0  0
  3 46  1  0  0  0
  4 38  1  0  0  0
  4  9  1  0  0  0
  4  5  1  0  0  0
  5  6  1  0  0  0
  5 47  1  0  0  0
  5 48  1  0  0  0
  6  7  1  0  0  0
  6 49  1  0  0  0
  7 39  1  0  0  0
  7  8  1  0  0  0
  7 10  1  0  0  0
  8  9  1  0  0  0
  8 50  1  0  0  0
  8 51  1  0  0  0
 10 40  1  0  0  0
 10 11  1  0  0  0
 10 12  1  0  0  0
 11 52  1  0  0  0
 12 41  1  0  0  0
 12 37  1  0  0  0
 12 13  1  0  0  0
 13 14  1  0  0  0
 13 53  1  0  0  0
 13 54  1  0  0  0
 14 19  1  0  0  0
 14 15  2  0  0  0
 15 16  1  0  0  0
 15 55  1  0  0  0
 16 17  2  0  0  0
 16 56  1  0  0  0
 17 18  1  0  0  0
 17 57  1  0  0  0
 18 19  2  0  0  0
 18 20  1  0  0  0
 19 58  1  0  0  0
 20 21  1  0  0  0
 21 22  1  0  0  0
 21 59  1  0  0  0
 21 60  1  0  0  0
 22 23  1  0  0  0
 22 61  1  0  0  0
 22 62  1  0  0  0
 23 24  1  0  0  0
 23 63  1  0  0  0
 23 64  1  0  0  0
 24 25  1  0  0  0
 24 65  1  0  0  0
 24 66  1  0  0  0
 25 26  1  0  0  0
 25 67  1  0  0  0
 26 34  1  0  0  0
 26 27  2  0  0  0
 27 28  1  0  0  0
 27 68  1  0  0  0
 28 29  1  0  0  0
 28 32  2  0  0  0
 29 30  1  0  0  0
 29 69  1  0  0  0
 29 70  1  0  0  0
 30 31  1  0  0  0
 31 71  1  0  0  0
 31 72  1  0  0  0
 31 73  1  0  0  0
 32 33  1  0  0  0
 32 74  1  0  0  0
 33 34  2  0  0  0
 33 35  1  0  0  0
 34 75  1  0  0  0
 35 36  2  0  0  0
 35 37  1  0  0  0
 37 76  1  0  0  0
M  END
> <s_m_source_file>
BACE_13.smi

> <i_m_source_file_index>
1

> <i_lp_mmshare_version>
42013

> <i_f3d_flags>
0

> <s_epik_input>
W0NIM11PW0NIMl1bQ0BIXTFbQ0gyXVtOSF1bQ0BIXShbQ0gyXU8xKVtDQEBIXShbT0hdKVtDQEhdKFtDSDJdMilbTkhdQyg9TyljKFtjSF0zKVtjSF1jKFtDSDJdT1tDSDNdKVtjSF1jM1tOSF1bQ0gyXVtDSDJdW0NIMl1bQ0gyXU9jKFtjSF00KVtjSF1bY0hdW2NIXWMyNA==

> <s_epik_cmdline>
J2VwaWtfcHl0aG9uJywgJy1waCcsICc3LjAnLCAnLXRuJywgJzgnLCAnLW1hJywgJzIwMCcsICctaW1hZScsICc8aW5maWxlLm1hZT4nLCAnLW9tYWUnLCAnPG91dGZpbGUubWFlPic=

> <r_lp_tautomer_probability>
1

> <r_epik_Ionization_Penalty>
1.02499

> <r_epik_Ionization_Penalty_Charging>
0

> <r_epik_Ionization_Penalty_Neutral>
1.02499

> <r_epik_State_Penalty>
1.07522

> <r_epik_Charging_Adjusted_Penalty>
1.07522

> <i_epik_Tot_Q>
0

> <i_epik_Tot_abs_Q>
0

> <s_lp_Force_Field>
OPLS_2005

> <r_lp_Energy>
47.6035

> <b_lp_Chiralities_Consistent>
1

> <s_lp_Variant>
BACE_13.smi:1-2

$$$$
