BACE_116.smi:1
                    3D
 Structure written by MMmdl.
 84 87  0  0  1  0            999 V2000
   -0.0366    2.7449    4.0771 C   0  0  0  0  0  0
   -1.3679    2.9015    3.3253 C   0  0  0  0  0  0
   -2.4671    2.0151    3.9325 C   0  0  0  0  0  0
   -1.2039    2.6517    1.8308 C   0  0  0  0  0  0
   -1.4343    3.6948    0.9124 C   0  0  0  0  0  0
   -1.2729    3.4670   -0.4653 C   0  0  0  0  0  0
   -0.8879    2.1969   -0.9338 C   0  0  0  0  0  0
   -0.6653    1.1259   -0.0331 C   0  0  0  0  0  0
   -0.8186    1.3807    1.3526 C   0  0  0  0  0  0
   -0.2233   -0.2643   -0.5320 C   0  0  0  0  0  0
   -0.8054   -1.3889    0.3626 C   0  0  0  0  0  0
   -0.6952   -0.5345   -1.9816 C   0  0  0  0  0  0
    1.2619   -0.2560   -0.4814 N   0  3  0  0  0  0
    1.9756   -1.5305   -0.7363 C   0  0  0  0  0  0
    3.5086   -1.3561   -0.6778 C   0  0  1  0  0  0
    3.8929   -0.5629   -1.7840 O   0  0  0  0  0  0
    4.0746   -0.7445    0.6351 C   0  0  2  0  0  0
    5.6222   -0.8072    0.7320 C   0  0  0  0  0  0
    6.1945   -2.1321    1.2238 C   0  0  0  0  0  0
    6.3281   -3.2161    0.3334 C   0  0  0  0  0  0
    6.8450   -4.4445    0.7815 C   0  0  0  0  0  0
    6.9474   -5.4802   -0.0866 F   0  0  0  0  0  0
    7.2573   -4.5962    2.1215 C   0  0  0  0  0  0
    7.7601   -5.8318    2.5341 N   0  0  0  0  0  0
    7.1599   -3.5028    3.0189 C   0  0  0  0  0  0
    7.6428   -3.6194    4.4619 C   0  0  0  0  0  0
    6.5679   -4.1684    5.4165 C   0  0  0  0  0  0
    5.7823   -3.0603    6.1375 C   0  0  0  0  0  0
    4.5660   -3.5736    6.9326 C   0  0  0  0  0  0
    3.5321   -4.2113    6.1213 N   0  0  0  0  0  0
    2.6373   -3.3217    5.5161 C   0  0  0  0  0  0
    1.3395   -3.1667    6.0434 C   0  0  0  0  0  0
    0.4468   -2.2457    5.4622 C   0  0  0  0  0  0
    0.8465   -1.4763    4.3524 C   0  0  0  0  0  0
    2.1361   -1.6401    3.7999 C   0  0  0  0  0  0
    3.0206   -2.5734    4.3845 C   0  0  0  0  0  0
    2.5778   -0.7930    2.6426 C   0  0  0  0  0  0
    2.1028    0.3279    2.4618 O   0  0  0  0  0  0
    3.4673   -1.3651    1.8139 N   0  0  0  0  0  0
    6.6182   -2.2798    2.5633 C   0  0  0  0  0  0
    3.9392   -2.3446   -0.8265 H   0  0  0  0  0  0
    3.8150    0.3157    0.6185 H   0  0  0  0  0  0
    0.7277    3.4044    3.6645 H   0  0  0  0  0  0
    0.3394    1.7236    4.0229 H   0  0  0  0  0  0
   -0.1519    2.9950    5.1320 H   0  0  0  0  0  0
   -1.6867    3.9370    3.4535 H   0  0  0  0  0  0
   -3.4203    2.1719    3.4266 H   0  0  0  0  0  0
   -2.6145    2.2438    4.9883 H   0  0  0  0  0  0
   -2.2196    0.9557    3.8577 H   0  0  0  0  0  0
   -1.7293    4.6748    1.2586 H   0  0  0  0  0  0
   -1.4426    4.2709   -1.1665 H   0  0  0  0  0  0
   -0.7662    2.0743   -1.9982 H   0  0  0  0  0  0
   -0.6343    0.6049    2.0778 H   0  0  0  0  0  0
   -1.8867   -1.2879    0.4639 H   0  0  0  0  0  0
   -0.3743   -1.3966    1.3633 H   0  0  0  0  0  0
   -0.6233   -2.3779   -0.0588 H   0  0  0  0  0  0
   -1.7719   -0.3887   -2.0783 H   0  0  0  0  0  0
   -0.4888   -1.5590   -2.2916 H   0  0  0  0  0  0
   -0.2003    0.1113   -2.7070 H   0  0  0  0  0  0
    1.5919    0.4263   -1.1491 H   0  0  0  0  0  0
    1.6767   -2.2768   -0.0010 H   0  0  0  0  0  0
    1.6952   -1.9282   -1.7116 H   0  0  0  0  0  0
    4.8373   -0.5403   -1.8257 H   0  0  0  0  0  0
    6.0805   -0.5540   -0.2243 H   0  0  0  0  0  0
    5.9547   -0.0297    1.4214 H   0  0  0  0  0  0
    6.0352   -3.1137   -0.7004 H   0  0  0  0  0  0
    7.9868   -6.0087    3.5021 H   0  0  0  0  0  0
    7.7574   -6.6284    1.9129 H   0  0  0  0  0  0
    8.5183   -4.2684    4.4906 H   0  0  0  0  0  0
    8.0028   -2.6499    4.8089 H   0  0  0  0  0  0
    5.9037   -4.8463    4.8789 H   0  0  0  0  0  0
    7.0543   -4.7755    6.1807 H   0  0  0  0  0  0
    6.4577   -2.5604    6.8325 H   0  0  0  0  0  0
    5.4858   -2.2827    5.4377 H   0  0  0  0  0  0
    4.8996   -4.2974    7.6766 H   0  0  0  0  0  0
    4.1225   -2.7486    7.4921 H   0  0  0  0  0  0
    3.0664   -4.9479    6.6323 H   0  0  0  0  0  0
    1.0293   -3.7408    6.9045 H   0  0  0  0  0  0
   -0.5429   -2.1203    5.8760 H   0  0  0  0  0  0
    0.1535   -0.7638    3.9291 H   0  0  0  0  0  0
    4.0037   -2.7195    3.9640 H   0  0  0  0  0  0
    3.7821   -2.2975    2.0419 H   0  0  0  0  0  0
    6.5325   -1.4473    3.2467 H   0  0  0  0  0  0
    1.5297    0.0576    0.4413 H   0  0  0  0  0  0
  1  2  1  0  0  0
  1 43  1  0  0  0
  1 44  1  0  0  0
  1 45  1  0  0  0
  2  3  1  0  0  0
  2  4  1  0  0  0
  2 46  1  0  0  0
  3 47  1  0  0  0
  3 48  1  0  0  0
  3 49  1  0  0  0
  4  9  1  0  0  0
  4  5  2  0  0  0
  5  6  1  0  0  0
  5 50  1  0  0  0
  6  7  2  0  0  0
  6 51  1  0  0  0
  7  8  1  0  0  0
  7 52  1  0  0  0
  8  9  2  0  0  0
  8 10  1  0  0  0
  9 53  1  0  0  0
 10 11  1  0  0  0
 10 12  1  0  0  0
 10 13  1  0  0  0
 11 54  1  0  0  0
 11 55  1  0  0  0
 11 56  1  0  0  0
 12 57  1  0  0  0
 12 58  1  0  0  0
 12 59  1  0  0  0
 13 14  1  0  0  0
 13 60  1  0  0  0
 13 84  1  0  0  0
 14 15  1  0  0  0
 14 61  1  0  0  0
 14 62  1  0  0  0
 15 41  1  0  0  0
 15 16  1  0  0  0
 15 17  1  0  0  0
 16 63  1  0  0  0
 17 42  1  0  0  0
 17 39  1  0  0  0
 17 18  1  0  0  0
 18 19  1  0  0  0
 18 64  1  0  0  0
 18 65  1  0  0  0
 19 40  1  0  0  0
 19 20  2  0  0  0
 20 21  1  0  0  0
 20 66  1  0  0  0
 21 22  1  0  0  0
 21 23  2  0  0  0
 23 24  1  0  0  0
 23 25  1  0  0  0
 24 67  1  0  0  0
 24 68  1  0  0  0
 25 26  1  0  0  0
 25 40  2  0  0  0
 26 27  1  0  0  0
 26 69  1  0  0  0
 26 70  1  0  0  0
 27 28  1  0  0  0
 27 71  1  0  0  0
 27 72  1  0  0  0
 28 29  1  0  0  0
 28 73  1  0  0  0
 28 74  1  0  0  0
 29 30  1  0  0  0
 29 75  1  0  0  0
 29 76  1  0  0  0
 30 31  1  0  0  0
 30 77  1  0  0  0
 31 36  1  0  0  0
 31 32  2  0  0  0
 32 33  1  0  0  0
 32 78  1  0  0  0
 33 34  2  0  0  0
 33 79  1  0  0  0
 34 35  1  0  0  0
 34 80  1  0  0  0
 35 36  2  0  0  0
 35 37  1  0  0  0
 36 81  1  0  0  0
 37 38  2  0  0  0
 37 39  1  0  0  0
 39 82  1  0  0  0
 40 83  1  0  0  0
M  CHG  1  13   1
M  END
> <s_m_source_file>
BACE_116.smi

> <i_m_source_file_index>
1

> <i_lp_mmshare_version>
42013

> <i_f3d_flags>
0

> <s_epik_input>
W0NIM11bQ0hdKFtDSDNdKWMxW2NIXVtjSF1bY0hdYyhbY0hdMSlDKFtDSDNdKShbQ0gzXSlbTkhdW0NIMl1bQ0BASF0oW09IXSlbQ0BIXShbQ0gyXTIpW05IXUMoPU8pYyhbY0hdMylbY0hdW2NIXVtjSF1jM1tOSF1bQ0gyXVtDSDJdW0NIMl1bQ0gyXWMoW2NIXTQpYyhbTkgyXSljKEYpW2NIXWMyNA==

> <s_epik_cmdline>
J2VwaWtfcHl0aG9uJywgJy1waCcsICc3LjAnLCAnLXRuJywgJzgnLCAnLW1hJywgJzIwMCcsICctaW1hZScsICc8aW5maWxlLm1hZT4nLCAnLW9tYWUnLCAnPG91dGZpbGUubWFlPic=

> <r_epik_Ionization_Penalty>
0.0210367

> <r_epik_Ionization_Penalty_Charging>
0.0191194

> <r_epik_Ionization_Penalty_Neutral>
0.00191733

> <r_epik_State_Penalty>
0.0152524

> <r_epik_Charging_Adjusted_Penalty>
0.0343718

> <i_epik_Tot_Q>
1

> <i_epik_Tot_abs_Q>
1

> <s_lp_Force_Field>
OPLS_2005

> <r_lp_Energy>
36.8855

> <b_lp_Chiralities_Consistent>
1

> <s_lp_Variant>
BACE_116.smi:1-1

$$$$
BACE_116.smi:1
                    3D
 Structure written by MMmdl.
 83 86  0  0  1  0            999 V2000
   -4.1437    4.4212   -1.1238 C   0  0  0  0  0  0
   -3.8465    3.5162    0.0824 C   0  0  0  0  0  0
   -4.3393    4.1417    1.3965 C   0  0  0  0  0  0
   -2.3710    3.1439    0.1610 C   0  0  0  0  0  0
   -1.3861    4.1417    0.3092 C   0  0  0  0  0  0
   -0.0287    3.7851    0.3832 C   0  0  0  0  0  0
    0.3539    2.4326    0.3147 C   0  0  0  0  0  0
   -0.6174    1.4085    0.1708 C   0  0  0  0  0  0
   -1.9795    1.7896    0.0923 C   0  0  0  0  0  0
   -0.2370   -0.0861    0.1041 C   0  0  0  0  0  0
   -0.9247   -0.8281    1.2750 C   0  0  0  0  0  0
   -0.7284   -0.6785   -1.2375 C   0  0  0  0  0  0
    1.2287   -0.2563    0.2033 N   0  0  0  0  0  0
    1.7893   -1.6107    0.2552 C   0  0  0  0  0  0
    3.3316   -1.5586    0.3081 C   0  0  1  0  0  0
    3.6752   -1.2198    1.6387 O   0  0  0  0  0  0
    4.0231   -2.9075   -0.0377 C   0  0  2  0  0  0
    5.5706   -2.8200   -0.0558 C   0  0  0  0  0  0
    6.2361   -4.1876   -0.0540 C   0  0  0  0  0  0
    6.6766   -4.7624    1.1549 C   0  0  0  0  0  0
    7.2538   -6.0467    1.1599 C   0  0  0  0  0  0
    7.6751   -6.5839    2.3307 F   0  0  0  0  0  0
    7.3805   -6.7756   -0.0423 C   0  0  0  0  0  0
    7.9391   -8.0544   -0.0060 N   0  0  0  0  0  0
    6.9353   -6.2048   -1.2598 C   0  0  0  0  0  0
    6.9943   -6.9634   -2.5776 C   0  0  0  0  0  0
    5.8499   -7.9872   -2.7162 C   0  0  0  0  0  0
    5.6397   -8.4811   -4.1579 C   0  0  0  0  0  0
    4.9649   -7.4546   -5.0881 C   0  0  0  0  0  0
    3.5241   -7.3642   -4.8783 N   0  0  0  0  0  0
    3.0067   -6.0719   -4.7225 C   0  0  0  0  0  0
    2.0009   -5.6230   -5.6022 C   0  0  0  0  0  0
    1.4871   -4.3171   -5.4849 C   0  0  0  0  0  0
    1.9637   -3.4572   -4.4769 C   0  0  0  0  0  0
    2.9435   -3.9070   -3.5665 C   0  0  0  0  0  0
    3.4684   -5.2117   -3.7022 C   0  0  0  0  0  0
    3.4478   -2.9905   -2.4936 C   0  0  0  0  0  0
    3.7342   -1.8218   -2.7504 O   0  0  0  0  0  0
    3.5184   -3.5364   -1.2656 N   0  0  0  0  0  0
    6.3908   -4.9039   -1.2568 C   0  0  0  0  0  0
    3.7044   -0.7768   -0.3549 H   0  0  0  0  0  0
    3.7501   -3.6033    0.7576 H   0  0  0  0  0  0
   -3.8349    3.9459   -2.0552 H   0  0  0  0  0  0
   -3.6255    5.3776   -1.0493 H   0  0  0  0  0  0
   -5.2108    4.6313   -1.2006 H   0  0  0  0  0  0
   -4.4133    2.5958   -0.0648 H   0  0  0  0  0  0
   -4.1753    3.4658    2.2364 H   0  0  0  0  0  0
   -5.4073    4.3566    1.3516 H   0  0  0  0  0  0
   -3.8233    5.0768    1.6162 H   0  0  0  0  0  0
   -1.6664    5.1831    0.3673 H   0  0  0  0  0  0
    0.7234    4.5519    0.4954 H   0  0  0  0  0  0
    1.4084    2.2107    0.3776 H   0  0  0  0  0  0
   -2.7421    1.0335   -0.0187 H   0  0  0  0  0  0
   -2.0076   -0.7071    1.2562 H   0  0  0  0  0  0
   -0.5733   -0.4564    2.2385 H   0  0  0  0  0  0
   -0.7448   -1.9024    1.2465 H   0  0  0  0  0  0
   -1.8036   -0.5580   -1.3674 H   0  0  0  0  0  0
   -0.5343   -1.7477   -1.3157 H   0  0  0  0  0  0
   -0.2427   -0.1919   -2.0843 H   0  0  0  0  0  0
    1.5894    0.2967    0.9746 H   0  0  0  0  0  0
    1.4188   -2.1638    1.1179 H   0  0  0  0  0  0
    1.4681   -2.1630   -0.6244 H   0  0  0  0  0  0
    3.3360   -1.8877    2.2147 H   0  0  0  0  0  0
    5.9122   -2.2522   -0.9222 H   0  0  0  0  0  0
    5.9296   -2.2715    0.8154 H   0  0  0  0  0  0
    6.5678   -4.2229    2.0842 H   0  0  0  0  0  0
    8.1389   -8.5595   -0.8573 H   0  0  0  0  0  0
    8.3497   -8.4143    0.8437 H   0  0  0  0  0  0
    6.9511   -6.2372   -3.3890 H   0  0  0  0  0  0
    7.9604   -7.4585   -2.6809 H   0  0  0  0  0  0
    6.0593   -8.8392   -2.0691 H   0  0  0  0  0  0
    4.9153   -7.5657   -2.3475 H   0  0  0  0  0  0
    6.6080   -8.7598   -4.5750 H   0  0  0  0  0  0
    5.0488   -9.3981   -4.1474 H   0  0  0  0  0  0
    5.4469   -6.4798   -5.0148 H   0  0  0  0  0  0
    5.1076   -7.7763   -6.1199 H   0  0  0  0  0  0
    2.9943   -7.9438   -5.5137 H   0  0  0  0  0  0
    1.6323   -6.2721   -6.3832 H   0  0  0  0  0  0
    0.7281   -3.9727   -6.1717 H   0  0  0  0  0  0
    1.5623   -2.4568   -4.3978 H   0  0  0  0  0  0
    4.2307   -5.5546   -3.0215 H   0  0  0  0  0  0
    3.2319   -4.5008   -1.1795 H   0  0  0  0  0  0
    6.0598   -4.4599   -2.1835 H   0  0  0  0  0  0
  1  2  1  0  0  0
  1 43  1  0  0  0
  1 44  1  0  0  0
  1 45  1  0  0  0
  2  3  1  0  0  0
  2  4  1  0  0  0
  2 46  1  0  0  0
  3 47  1  0  0  0
  3 48  1  0  0  0
  3 49  1  0  0  0
  4  9  1  0  0  0
  4  5  2  0  0  0
  5  6  1  0  0  0
  5 50  1  0  0  0
  6  7  2  0  0  0
  6 51  1  0  0  0
  7  8  1  0  0  0
  7 52  1  0  0  0
  8  9  2  0  0  0
  8 10  1  0  0  0
  9 53  1  0  0  0
 10 11  1  0  0  0
 10 12  1  0  0  0
 10 13  1  0  0  0
 11 54  1  0  0  0
 11 55  1  0  0  0
 11 56  1  0  0  0
 12 57  1  0  0  0
 12 58  1  0  0  0
 12 59  1  0  0  0
 13 14  1  0  0  0
 13 60  1  0  0  0
 14 15  1  0  0  0
 14 61  1  0  0  0
 14 62  1  0  0  0
 15 41  1  0  0  0
 15 16  1  0  0  0
 15 17  1  0  0  0
 16 63  1  0  0  0
 17 42  1  0  0  0
 17 39  1  0  0  0
 17 18  1  0  0  0
 18 19  1  0  0  0
 18 64  1  0  0  0
 18 65  1  0  0  0
 19 40  1  0  0  0
 19 20  2  0  0  0
 20 21  1  0  0  0
 20 66  1  0  0  0
 21 22  1  0  0  0
 21 23  2  0  0  0
 23 24  1  0  0  0
 23 25  1  0  0  0
 24 67  1  0  0  0
 24 68  1  0  0  0
 25 26  1  0  0  0
 25 40  2  0  0  0
 26 27  1  0  0  0
 26 69  1  0  0  0
 26 70  1  0  0  0
 27 28  1  0  0  0
 27 71  1  0  0  0
 27 72  1  0  0  0
 28 29  1  0  0  0
 28 73  1  0  0  0
 28 74  1  0  0  0
 29 30  1  0  0  0
 29 75  1  0  0  0
 29 76  1  0  0  0
 30 31  1  0  0  0
 30 77  1  0  0  0
 31 36  1  0  0  0
 31 32  2  0  0  0
 32 33  1  0  0  0
 32 78  1  0  0  0
 33 34  2  0  0  0
 33 79  1  0  0  0
 34 35  1  0  0  0
 34 80  1  0  0  0
 35 36  2  0  0  0
 35 37  1  0  0  0
 36 81  1  0  0  0
 37 38  2  0  0  0
 37 39  1  0  0  0
 39 82  1  0  0  0
 40 83  1  0  0  0
M  END
> <s_m_source_file>
BACE_116.smi

> <i_m_source_file_index>
1

> <i_lp_mmshare_version>
42013

> <i_f3d_flags>
0

> <s_epik_input>
W0NIM11bQ0hdKFtDSDNdKWMxW2NIXVtjSF1bY0hdYyhbY0hdMSlDKFtDSDNdKShbQ0gzXSlbTkhdW0NIMl1bQ0BASF0oW09IXSlbQ0BIXShbQ0gyXTIpW05IXUMoPU8pYyhbY0hdMylbY0hdW2NIXVtjSF1jM1tOSF1bQ0gyXVtDSDJdW0NIMl1bQ0gyXWMoW2NIXTQpYyhbTkgyXSljKEYpW2NIXWMyNA==

> <s_epik_cmdline>
J2VwaWtfcHl0aG9uJywgJy1waCcsICc3LjAnLCAnLXRuJywgJzgnLCAnLW1hJywgJzIwMCcsICctaW1hZScsICc8aW5maWxlLm1hZT4nLCAnLW9tYWUnLCAnPG91dGZpbGUubWFlPic=

> <r_epik_Ionization_Penalty>
2.04629

> <r_epik_Ionization_Penalty_Charging>
0

> <r_epik_Ionization_Penalty_Neutral>
2.04629

> <r_epik_State_Penalty>
2.17586

> <r_epik_Charging_Adjusted_Penalty>
2.17586

> <i_epik_Tot_Q>
0

> <i_epik_Tot_abs_Q>
0

> <s_lp_Force_Field>
OPLS_2005

> <r_lp_Energy>
44.0271

> <b_lp_Chiralities_Consistent>
1

> <s_lp_Variant>
BACE_116.smi:1-2

$$$$
