BACE_19.smi:1
                    3D
 Structure written by MMmdl.
 76 77  0  0  1  0            999 V2000
    0.3741   -5.1903   -3.9628 C   0  0  0  0  0  0
   -0.8793   -4.4982   -3.4147 C   0  0  0  0  0  0
   -0.5390   -3.4311   -2.3675 C   0  0  0  0  0  0
   -1.7794   -2.7188   -1.7998 C   0  0  0  0  0  0
   -1.3904   -1.7638   -0.7701 N   0  0  0  0  0  0
   -0.9116   -0.5323   -1.0057 C   0  0  0  0  0  0
   -0.9240   -0.0016   -2.1170 O   0  0  0  0  0  0
   -0.2517    0.1761    0.1874 C   0  0  2  0  0  0
   -0.7786    1.6147    0.3276 C   0  0  0  0  0  0
    1.2937    0.1542    0.0602 C   0  0  0  0  0  0
    1.9236   -1.2598   -0.0407 C   0  0  1  0  0  0
    3.4694   -1.2926   -0.2136 C   0  0  2  0  0  0
    3.9897   -0.3898   -1.3727 C   0  0  0  0  0  0
    5.5094   -0.3843   -1.6952 C   0  0  1  0  0  0
    6.3942   -0.2426   -0.4278 C   0  0  0  0  0  0
    7.9256   -0.3355   -0.6266 C   0  0  0  0  0  0
    8.4335   -1.7635   -0.7782 C   0  0  0  0  0  0
    9.2040   -2.1338   -1.9004 C   0  0  0  0  0  0
    9.5917   -3.4755   -2.0798 C   0  0  0  0  0  0
    9.1987   -4.4554   -1.1477 C   0  0  0  0  0  0
    8.4396   -4.0930   -0.0153 C   0  0  0  0  0  0
    8.0980   -2.7400    0.1836 C   0  0  0  0  0  0
    7.9682   -5.1599    0.9607 C   0  0  0  0  0  0
    6.1157   -5.2138    1.0934 S   0  0  0  0  0  0
    5.7463   -6.4936    1.7169 O   0  0  0  0  0  0
    5.6467   -3.9620    1.7065 O   0  0  0  0  0  0
    5.5650   -5.2481   -0.6816 C   0  0  0  0  0  0
    4.0392   -5.0721   -0.9080 C   0  0  2  0  0  0
    3.6102   -3.6225   -1.1997 C   0  0  0  0  0  0
    2.9581   -3.3771   -2.2142 O   0  0  0  0  0  0
    3.9457   -2.6829   -0.2964 N   0  0  0  0  0  0
    3.1249   -5.7146    0.1503 C   0  0  0  0  0  0
    5.9057   -1.5225   -2.6513 C   0  0  0  0  0  0
    1.6006   -1.9538    1.1511 O   0  0  0  0  0  0
   -0.5337   -0.3559    1.0974 H   0  0  0  0  0  0
    1.4690   -1.7879   -0.8758 H   0  0  0  0  0  0
    3.8898   -0.8945    0.7103 H   0  0  0  0  0  0
    5.6760    0.5224   -2.2787 H   0  0  0  0  0  0
    3.8317   -5.6059   -1.8370 H   0  0  0  0  0  0
    0.1100   -5.9462   -4.7024 H   0  0  0  0  0  0
    0.9324   -5.6828   -3.1660 H   0  0  0  0  0  0
    1.0411   -4.4735   -4.4428 H   0  0  0  0  0  0
   -1.4294   -4.0416   -4.2382 H   0  0  0  0  0  0
   -1.5411   -5.2454   -2.9757 H   0  0  0  0  0  0
    0.0182   -3.8941   -1.5514 H   0  0  0  0  0  0
    0.1305   -2.6956   -2.8161 H   0  0  0  0  0  0
   -2.3380   -2.2204   -2.5936 H   0  0  0  0  0  0
   -2.4548   -3.4469   -1.3501 H   0  0  0  0  0  0
   -1.3502   -2.1100    0.1777 H   0  0  0  0  0  0
   -1.8664    1.6331    0.4052 H   0  0  0  0  0  0
   -0.4943    2.2330   -0.5248 H   0  0  0  0  0  0
   -0.3797    2.0886    1.2249 H   0  0  0  0  0  0
    1.5570    0.7364   -0.8224 H   0  0  0  0  0  0
    1.7339    0.6816    0.9076 H   0  0  0  0  0  0
    3.4266   -0.6053   -2.2815 H   0  0  0  0  0  0
    3.7372    0.6403   -1.1229 H   0  0  0  0  0  0
    6.1757    0.7356    0.0021 H   0  0  0  0  0  0
    6.0915   -0.9547    0.3361 H   0  0  0  0  0  0
    8.2304    0.2715   -1.4800 H   0  0  0  0  0  0
    8.4245    0.0916    0.2439 H   0  0  0  0  0  0
    9.4789   -1.3964   -2.6404 H   0  0  0  0  0  0
   10.1710   -3.7577   -2.9466 H   0  0  0  0  0  0
    9.4758   -5.4865   -1.3119 H   0  0  0  0  0  0
    7.5356   -2.4558    1.0591 H   0  0  0  0  0  0
    8.3120   -6.1451    0.6444 H   0  0  0  0  0  0
    8.3792   -4.9698    1.9522 H   0  0  0  0  0  0
    6.1176   -4.4916   -1.2331 H   0  0  0  0  0  0
    5.8854   -6.2071   -1.0887 H   0  0  0  0  0  0
    4.5104   -2.9921    0.4828 H   0  0  0  0  0  0
    2.0764   -5.6429   -0.1419 H   0  0  0  0  0  0
    3.2233   -5.2342    1.1238 H   0  0  0  0  0  0
    3.3547   -6.7732    0.2731 H   0  0  0  0  0  0
    6.0191   -2.4691   -2.1320 H   0  0  0  0  0  0
    6.8510   -1.3046   -3.1468 H   0  0  0  0  0  0
    5.1651   -1.6587   -3.4397 H   0  0  0  0  0  0
    1.9494   -2.8301    1.0891 H   0  0  0  0  0  0
  1  2  1  0  0  0
  1 40  1  0  0  0
  1 41  1  0  0  0
  1 42  1  0  0  0
  2  3  1  0  0  0
  2 43  1  0  0  0
  2 44  1  0  0  0
  3  4  1  0  0  0
  3 45  1  0  0  0
  3 46  1  0  0  0
  4  5  1  0  0  0
  4 47  1  0  0  0
  4 48  1  0  0  0
  5  6  1  0  0  0
  5 49  1  0  0  0
  6  7  2  0  0  0
  6  8  1  0  0  0
  8 35  1  0  0  0
  8  9  1  0  0  0
  8 10  1  0  0  0
  9 50  1  0  0  0
  9 51  1  0  0  0
  9 52  1  0  0  0
 10 11  1  0  0  0
 10 53  1  0  0  0
 10 54  1  0  0  0
 11 36  1  0  0  0
 11 12  1  0  0  0
 11 34  1  0  0  0
 12 37  1  0  0  0
 12 31  1  0  0  0
 12 13  1  0  0  0
 13 14  1  0  0  0
 13 55  1  0  0  0
 13 56  1  0  0  0
 14 38  1  0  0  0
 14 15  1  0  0  0
 14 33  1  0  0  0
 15 16  1  0  0  0
 15 57  1  0  0  0
 15 58  1  0  0  0
 16 17  1  0  0  0
 16 59  1  0  0  0
 16 60  1  0  0  0
 17 22  1  0  0  0
 17 18  2  0  0  0
 18 19  1  0  0  0
 18 61  1  0  0  0
 19 20  2  0  0  0
 19 62  1  0  0  0
 20 21  1  0  0  0
 20 63  1  0  0  0
 21 22  2  0  0  0
 21 23  1  0  0  0
 22 64  1  0  0  0
 23 24  1  0  0  0
 23 65  1  0  0  0
 23 66  1  0  0  0
 24 25  2  0  0  0
 24 26  2  0  0  0
 24 27  1  0  0  0
 27 28  1  0  0  0
 27 67  1  0  0  0
 27 68  1  0  0  0
 28 39  1  0  0  0
 28 29  1  0  0  0
 28 32  1  0  0  0
 29 30  2  0  0  0
 29 31  1  0  0  0
 31 69  1  0  0  0
 32 70  1  0  0  0
 32 71  1  0  0  0
 32 72  1  0  0  0
 33 73  1  0  0  0
 33 74  1  0  0  0
 33 75  1  0  0  0
 34 76  1  0  0  0
M  END
> <s_m_source_file>
BACE_19.smi

> <i_m_source_file_index>
1

> <i_lp_mmshare_version>
42013

> <i_f3d_flags>
0

> <s_epik_input>
W0NIM11bQ0gyXVtDSDJdW0NIMl1bTkhdQyg9TylbQ0BIXShbQ0gzXSlbQ0gyXVtDQEhdKFtPSF0pW0NASF0oW0NIMl1bQ0BIXShbQ0gzXSlbQ0gyXVtDSDJdMSlbTkhdQyg9TylbQ0BIXShbQ0gzXSlbQ0gyXVMoPU8pKD1PKVtDSDJdYyhbY0hdMilbY0hdW2NIXVtjSF1jMTI=

> <s_epik_cmdline>
J2VwaWtfcHl0aG9uJywgJy1waCcsICc3LjAnLCAnLXRuJywgJzgnLCAnLW1hJywgJzIwMCcsICctaW1hZScsICc8aW5maWxlLm1hZT4nLCAnLW9tYWUnLCAnPG91dGZpbGUubWFlPic=

> <r_lp_tautomer_probability>
1

> <r_epik_Ionization_Penalty>
1.44519e-07

> <r_epik_Ionization_Penalty_Charging>
0

> <r_epik_Ionization_Penalty_Neutral>
1.44519e-07

> <r_epik_State_Penalty>
-0

> <r_epik_Charging_Adjusted_Penalty>
0

> <i_epik_Tot_Q>
0

> <i_epik_Tot_abs_Q>
0

> <s_lp_Force_Field>
OPLS_2005

> <r_lp_Energy>
20.3216

> <b_lp_Chiralities_Consistent>
1

> <s_lp_Variant>
BACE_19.smi:1-1

$$$$
