BACE_4.smi:1
                    3D
 Structure written by MMmdl.
 89 91  0  0  1  0            999 V2000
   -2.5684    3.6355    2.1843 C   0  0  0  0  0  0
   -1.0458    3.6391    1.9463 C   0  0  2  0  0  0
   -0.5970    4.4738    0.7224 C   0  0  0  0  0  0
   -1.2044    5.8892    0.6392 C   0  0  0  0  0  0
   -2.3584    5.9635   -0.3767 C   0  0  0  0  0  0
   -3.2484    7.2107   -0.2466 C   0  0  0  0  0  0
   -4.3042    7.1389    0.8757 C   0  0  0  0  0  0
   -5.5359    6.2726    0.5485 C   0  0  0  0  0  0
   -5.2137    4.8928    0.6077 O   0  0  0  0  0  0
   -6.3140    4.0421    0.3211 C   0  0  0  0  0  0
   -5.8526    2.5833    0.4615 C   0  0  0  0  0  0
   -6.2313    1.9601    1.4537 O   0  0  0  0  0  0
   -5.0193    2.0488   -0.4692 N   0  0  0  0  0  0
   -4.4157    0.7071   -0.2895 C   0  0  2  0  0  0
   -2.8835    0.7203   -0.4326 C   0  0  0  0  0  0
   -2.3471    0.4846   -1.5156 O   0  0  0  0  0  0
   -2.1971    1.0237    0.6810 N   0  0  0  0  0  0
   -0.7587    1.2607    0.7774 C   0  0  1  0  0  0
   -0.4227    2.2172    1.9592 C   0  0  0  0  0  0
    0.0145   -0.0842    0.8120 C   0  0  1  0  0  0
    1.5145    0.1098    0.5266 C   0  0  0  0  0  0
    2.1562   -1.1447    0.1352 N   0  0  0  0  0  0
    3.5429   -1.0005   -0.3063 C   0  0  0  0  0  0
    3.8001   -0.4331   -1.6851 C   0  0  0  0  0  0
    4.0052   -1.9081   -1.4227 C   0  0  0  0  0  0
    4.4781   -0.7039    0.8303 C   0  0  0  0  0  0
    4.9830   -1.7447    1.6340 C   0  0  0  0  0  0
    5.8440   -1.4557    2.7075 C   0  0  0  0  0  0
    6.2009   -0.1240    2.9916 C   0  0  0  0  0  0
    5.7015    0.9414    2.2025 C   0  0  0  0  0  0
    4.8438    0.6270    1.1222 C   0  0  0  0  0  0
    6.0518    2.4147    2.4844 C   0  0  0  0  0  0
    6.7490    3.0269    1.2517 C   0  0  0  0  0  0
    6.9984    2.5893    3.6931 C   0  0  0  0  0  0
    4.7598    3.2035    2.7843 C   0  0  0  0  0  0
   -0.1175   -0.6776    2.0898 O   0  0  0  0  0  0
   -5.1349   -0.3321   -1.1688 C   0  0  0  0  0  0
   -4.7253    2.7594   -1.7229 C   0  0  0  0  0  0
   -0.6274    4.1414    2.8198 H   0  0  0  0  0  0
   -4.5779    0.3621    0.7333 H   0  0  0  0  0  0
   -0.4647    1.7621   -0.1448 H   0  0  0  0  0  0
   -0.4013   -0.7635    0.0662 H   0  0  0  0  0  0
   -3.1165    3.3635    1.2860 H   0  0  0  0  0  0
   -2.9287    4.6157    2.4938 H   0  0  0  0  0  0
   -2.8455    2.9348    2.9722 H   0  0  0  0  0  0
    0.4892    4.5655    0.7596 H   0  0  0  0  0  0
   -0.8090    3.9435   -0.2054 H   0  0  0  0  0  0
   -1.5228    6.2243    1.6262 H   0  0  0  0  0  0
   -0.4325    6.5950    0.3306 H   0  0  0  0  0  0
   -1.9292    5.9393   -1.3788 H   0  0  0  0  0  0
   -2.9687    5.0695   -0.3069 H   0  0  0  0  0  0
   -2.6111    8.0821   -0.0919 H   0  0  0  0  0  0
   -3.7586    7.3865   -1.1943 H   0  0  0  0  0  0
   -3.8523    6.8158    1.8135 H   0  0  0  0  0  0
   -4.6587    8.1543    1.0556 H   0  0  0  0  0  0
   -6.3233    6.4822    1.2742 H   0  0  0  0  0  0
   -5.9301    6.5294   -0.4359 H   0  0  0  0  0  0
   -7.1181    4.2323    1.0339 H   0  0  0  0  0  0
   -6.7209    4.2379   -0.6711 H   0  0  0  0  0  0
   -2.7312    1.1881    1.5221 H   0  0  0  0  0  0
    0.6597    2.3379    2.0070 H   0  0  0  0  0  0
   -0.6964    1.7383    2.9000 H   0  0  0  0  0  0
    1.6264    0.8265   -0.2876 H   0  0  0  0  0  0
    2.0152    0.5471    1.3908 H   0  0  0  0  0  0
    1.6097   -1.6190   -0.5762 H   0  0  0  0  0  0
    2.9433   -0.1608   -2.2984 H   0  0  0  0  0  0
    4.6900    0.1762   -1.8302 H   0  0  0  0  0  0
    5.0315   -2.2697   -1.3967 H   0  0  0  0  0  0
    3.2821   -2.5889   -1.8678 H   0  0  0  0  0  0
    4.7075   -2.7687    1.4286 H   0  0  0  0  0  0
    6.2289   -2.2583    3.3190 H   0  0  0  0  0  0
    6.8591    0.0501    3.8282 H   0  0  0  0  0  0
    4.4435    1.4176    0.5055 H   0  0  0  0  0  0
    7.0311    4.0650    1.4303 H   0  0  0  0  0  0
    6.1083    3.0190    0.3701 H   0  0  0  0  0  0
    7.6583    2.4792    1.0013 H   0  0  0  0  0  0
    7.9501    2.0798    3.5371 H   0  0  0  0  0  0
    6.5543    2.2051    4.6120 H   0  0  0  0  0  0
    7.2262    3.6415    3.8668 H   0  0  0  0  0  0
    4.9761    4.2486    3.0073 H   0  0  0  0  0  0
    4.2360    2.7871    3.6456 H   0  0  0  0  0  0
    4.0660    3.1941    1.9434 H   0  0  0  0  0  0
   -1.0339   -0.8443    2.2484 H   0  0  0  0  0  0
   -4.7156   -1.3281   -1.0217 H   0  0  0  0  0  0
   -5.0529   -0.0941   -2.2297 H   0  0  0  0  0  0
   -6.1958   -0.3848   -0.9222 H   0  0  0  0  0  0
   -4.1485    3.6633   -1.5406 H   0  0  0  0  0  0
   -5.6449    3.0359   -2.2392 H   0  0  0  0  0  0
   -4.1601    2.1524   -2.4287 H   0  0  0  0  0  0
  1  2  1  0  0  0
  1 43  1  0  0  0
  1 44  1  0  0  0
  1 45  1  0  0  0
  2 39  1  0  0  0
  2 19  1  0  0  0
  2  3  1  0  0  0
  3  4  1  0  0  0
  3 46  1  0  0  0
  3 47  1  0  0  0
  4  5  1  0  0  0
  4 48  1  0  0  0
  4 49  1  0  0  0
  5  6  1  0  0  0
  5 50  1  0  0  0
  5 51  1  0  0  0
  6  7  1  0  0  0
  6 52  1  0  0  0
  6 53  1  0  0  0
  7  8  1  0  0  0
  7 54  1  0  0  0
  7 55  1  0  0  0
  8  9  1  0  0  0
  8 56  1  0  0  0
  8 57  1  0  0  0
  9 10  1  0  0  0
 10 11  1  0  0  0
 10 58  1  0  0  0
 10 59  1  0  0  0
 11 12  2  0  0  0
 11 13  1  0  0  0
 13 14  1  0  0  0
 13 38  1  0  0  0
 14 40  1  0  0  0
 14 15  1  0  0  0
 14 37  1  0  0  0
 15 16  2  0  0  0
 15 17  1  0  0  0
 17 18  1  0  0  0
 17 60  1  0  0  0
 18 41  1  0  0  0
 18 19  1  0  0  0
 18 20  1  0  0  0
 19 61  1  0  0  0
 19 62  1  0  0  0
 20 42  1  0  0  0
 20 21  1  0  0  0
 20 36  1  0  0  0
 21 22  1  0  0  0
 21 63  1  0  0  0
 21 64  1  0  0  0
 22 23  1  0  0  0
 22 65  1  0  0  0
 23 25  1  0  0  0
 23 24  1  0  0  0
 23 26  1  0  0  0
 24 25  1  0  0  0
 24 66  1  0  0  0
 24 67  1  0  0  0
 25 68  1  0  0  0
 25 69  1  0  0  0
 26 31  1  0  0  0
 26 27  2  0  0  0
 27 28  1  0  0  0
 27 70  1  0  0  0
 28 29  2  0  0  0
 28 71  1  0  0  0
 29 30  1  0  0  0
 29 72  1  0  0  0
 30 31  2  0  0  0
 30 32  1  0  0  0
 31 73  1  0  0  0
 32 33  1  0  0  0
 32 34  1  0  0  0
 32 35  1  0  0  0
 33 74  1  0  0  0
 33 75  1  0  0  0
 33 76  1  0  0  0
 34 77  1  0  0  0
 34 78  1  0  0  0
 34 79  1  0  0  0
 35 80  1  0  0  0
 35 81  1  0  0  0
 35 82  1  0  0  0
 36 83  1  0  0  0
 37 84  1  0  0  0
 37 85  1  0  0  0
 37 86  1  0  0  0
 38 87  1  0  0  0
 38 88  1  0  0  0
 38 89  1  0  0  0
M  END
> <s_m_source_file>
BACE_4.smi

> <i_m_source_file_index>
1

> <i_lp_mmshare_version>
42013

> <i_f3d_flags>
0

> <s_epik_input>
W0NIM11bQ0BASF0xW0NIMl1bQ0gyXVtDSDJdW0NIMl1bQ0gyXVtDSDJdT1tDSDJdQyg9TylOKFtDSDNdKVtDQEBIXShbQ0gzXSlDKD1PKVtOSF1bQ0BASF0oW0NIMl0xKVtDQEhdKFtPSF0pW0NIMl1bTkhdQzIoW0NIMl1bQ0gyXTIpYzNbY0hdW2NIXVtjSF1jKFtjSF0zKUMoW0NIM10pKFtDSDNdKVtDSDNd

> <s_epik_cmdline>
J2VwaWtfcHl0aG9uJywgJy1waCcsICc3LjAnLCAnLXRuJywgJzgnLCAnLW1hJywgJzIwMCcsICctaW1hZScsICc8aW5maWxlLm1hZT4nLCAnLW9tYWUnLCAnPG91dGZpbGUubWFlPic=

> <r_epik_Ionization_Penalty>
0.338543

> <r_epik_Ionization_Penalty_Charging>
0

> <r_epik_Ionization_Penalty_Neutral>
0.338543

> <r_epik_State_Penalty>
0.334061

> <r_epik_Charging_Adjusted_Penalty>
0.334061

> <i_epik_Tot_Q>
0

> <i_epik_Tot_abs_Q>
0

> <s_lp_Force_Field>
OPLS_2005

> <r_lp_Energy>
57.6864

> <b_lp_Chiralities_Consistent>
1

> <s_lp_Variant>
BACE_4.smi:1-1

$$$$
BACE_4.smi:1
                    3D
 Structure written by MMmdl.
 90 92  0  0  1  0            999 V2000
   -2.5945    3.6432    2.2114 C   0  0  0  0  0  0
   -1.0645    3.6321    2.0225 C   0  0  2  0  0  0
   -0.5658    4.5100    0.8490 C   0  0  0  0  0  0
   -1.1433    5.9401    0.8138 C   0  0  0  0  0  0
   -2.2624    6.0864   -0.2333 C   0  0  0  0  0  0
   -3.1420    7.3365   -0.0626 C   0  0  0  0  0  0
   -4.2440    7.2120    1.0098 C   0  0  0  0  0  0
   -5.4695    6.3802    0.5838 C   0  0  0  0  0  0
   -5.1640    4.9951    0.5782 O   0  0  0  0  0  0
   -6.2564    4.1765    0.1869 C   0  0  0  0  0  0
   -5.8202    2.7060    0.2746 C   0  0  0  0  0  0
   -6.2572    2.0380    1.2122 O   0  0  0  0  0  0
   -4.9453    2.2085   -0.6384 N   0  0  0  0  0  0
   -4.3703    0.8500   -0.5001 C   0  0  2  0  0  0
   -2.8329    0.8423   -0.5694 C   0  0  0  0  0  0
   -2.2465    0.6125   -1.6275 O   0  0  0  0  0  0
   -2.1973    1.1165    0.5811 N   0  0  0  0  0  0
   -0.7596    1.3043    0.7603 C   0  0  1  0  0  0
   -0.4621    2.2010    1.9979 C   0  0  0  0  0  0
   -0.0364   -0.0694    0.7792 C   0  0  1  0  0  0
    1.4844    0.0549    0.5767 C   0  0  0  0  0  0
    2.1016   -1.2683    0.3468 N   0  3  0  0  0  0
    3.5522   -1.2404    0.0611 C   0  0  0  0  0  0
    3.8818   -1.0214   -1.3978 C   0  0  0  0  0  0
    3.9973   -2.4048   -0.7917 C   0  0  0  0  0  0
    4.4022   -0.7201    1.1827 C   0  0  0  0  0  0
    4.8474    0.6169    1.1815 C   0  0  0  0  0  0
    5.6349    1.1011    2.2399 C   0  0  0  0  0  0
    5.9811    0.2513    3.3061 C   0  0  0  0  0  0
    5.5461   -1.0947    3.3346 C   0  0  0  0  0  0
    4.7549   -1.5651    2.2563 C   0  0  0  0  0  0
    5.9423   -1.9938    4.5220 C   0  0  0  0  0  0
    5.3666   -3.4241    4.4151 C   0  0  0  0  0  0
    5.4203   -1.3791    5.8377 C   0  0  0  0  0  0
    7.4789   -2.1119    4.5914 C   0  0  0  0  0  0
   -0.2645   -0.7235    2.0133 O   0  0  0  0  0  0
   -5.0656   -0.1325   -1.4602 C   0  0  0  0  0  0
   -4.5805    2.9756   -1.8386 C   0  0  0  0  0  0
   -0.6681    4.0917    2.9290 H   0  0  0  0  0  0
   -4.5844    0.4584    0.4961 H   0  0  0  0  0  0
   -0.4009    1.8325   -0.1236 H   0  0  0  0  0  0
   -0.4343   -0.6997   -0.0175 H   0  0  0  0  0  0
   -3.1177    3.4187    1.2854 H   0  0  0  0  0  0
   -2.9498    4.6158    2.5490 H   0  0  0  0  0  0
   -2.9082    2.9159    2.9605 H   0  0  0  0  0  0
    0.5205    4.5781    0.9185 H   0  0  0  0  0  0
   -0.7634    4.0245   -0.1063 H   0  0  0  0  0  0
   -1.4868    6.2362    1.8048 H   0  0  0  0  0  0
   -0.3489    6.6443    0.5637 H   0  0  0  0  0  0
   -1.8013    6.1112   -1.2212 H   0  0  0  0  0  0
   -2.8850    5.1984   -0.2322 H   0  0  0  0  0  0
   -2.5014    8.1875    0.1723 H   0  0  0  0  0  0
   -3.6102    7.5779   -1.0175 H   0  0  0  0  0  0
   -3.8338    6.8317    1.9451 H   0  0  0  0  0  0
   -4.5968    8.2193    1.2330 H   0  0  0  0  0  0
   -6.2842    6.5574    1.2875 H   0  0  0  0  0  0
   -5.8199    6.6968   -0.3997 H   0  0  0  0  0  0
   -7.0974    4.3401    0.8632 H   0  0  0  0  0  0
   -6.6044    4.4299   -0.8145 H   0  0  0  0  0  0
   -2.7719    1.2859    1.3944 H   0  0  0  0  0  0
    0.6183    2.3034    2.0984 H   0  0  0  0  0  0
   -0.7837    1.6853    2.9034 H   0  0  0  0  0  0
    1.6913    0.6821   -0.2913 H   0  0  0  0  0  0
    1.9483    0.5363    1.4378 H   0  0  0  0  0  0
    1.9461   -1.8353    1.1683 H   0  0  0  0  0  0
    3.0639   -0.8591   -2.0974 H   0  0  0  0  0  0
    4.8114   -0.5105   -1.6418 H   0  0  0  0  0  0
    5.0032   -2.7928   -0.6424 H   0  0  0  0  0  0
    3.2558   -3.1393   -1.1008 H   0  0  0  0  0  0
    4.5825    1.2764    0.3680 H   0  0  0  0  0  0
    5.9738    2.1265    2.2353 H   0  0  0  0  0  0
    6.5876    0.6473    4.1070 H   0  0  0  0  0  0
    4.3979   -2.5825    2.2279 H   0  0  0  0  0  0
    5.6609   -4.0327    5.2711 H   0  0  0  0  0  0
    5.7259   -3.9385    3.5230 H   0  0  0  0  0  0
    4.2762   -3.4195    4.3891 H   0  0  0  0  0  0
    4.3359   -1.2652    5.8175 H   0  0  0  0  0  0
    5.8500   -0.3964    6.0330 H   0  0  0  0  0  0
    5.6667   -2.0081    6.6939 H   0  0  0  0  0  0
    7.7903   -2.7563    5.4145 H   0  0  0  0  0  0
    7.9592   -1.1454    4.7448 H   0  0  0  0  0  0
    7.8835   -2.5374    3.6722 H   0  0  0  0  0  0
   -1.1978   -0.8091    2.1394 H   0  0  0  0  0  0
   -4.6719   -1.1426   -1.3429 H   0  0  0  0  0  0
   -4.9314    0.1547   -2.5033 H   0  0  0  0  0  0
   -6.1374   -0.1754   -1.2643 H   0  0  0  0  0  0
   -4.0090    3.8648   -1.5823 H   0  0  0  0  0  0
   -5.4698    3.2847   -2.3885 H   0  0  0  0  0  0
   -3.9819    2.3979   -2.5419 H   0  0  0  0  0  0
    1.6341   -1.7027   -0.4357 H   0  0  0  0  0  0
  1  2  1  0  0  0
  1 43  1  0  0  0
  1 44  1  0  0  0
  1 45  1  0  0  0
  2 39  1  0  0  0
  2 19  1  0  0  0
  2  3  1  0  0  0
  3  4  1  0  0  0
  3 46  1  0  0  0
  3 47  1  0  0  0
  4  5  1  0  0  0
  4 48  1  0  0  0
  4 49  1  0  0  0
  5  6  1  0  0  0
  5 50  1  0  0  0
  5 51  1  0  0  0
  6  7  1  0  0  0
  6 52  1  0  0  0
  6 53  1  0  0  0
  7  8  1  0  0  0
  7 54  1  0  0  0
  7 55  1  0  0  0
  8  9  1  0  0  0
  8 56  1  0  0  0
  8 57  1  0  0  0
  9 10  1  0  0  0
 10 11  1  0  0  0
 10 58  1  0  0  0
 10 59  1  0  0  0
 11 12  2  0  0  0
 11 13  1  0  0  0
 13 14  1  0  0  0
 13 38  1  0  0  0
 14 40  1  0  0  0
 14 15  1  0  0  0
 14 37  1  0  0  0
 15 16  2  0  0  0
 15 17  1  0  0  0
 17 18  1  0  0  0
 17 60  1  0  0  0
 18 41  1  0  0  0
 18 19  1  0  0  0
 18 20  1  0  0  0
 19 61  1  0  0  0
 19 62  1  0  0  0
 20 42  1  0  0  0
 20 21  1  0  0  0
 20 36  1  0  0  0
 21 22  1  0  0  0
 21 63  1  0  0  0
 21 64  1  0  0  0
 22 23  1  0  0  0
 22 65  1  0  0  0
 22 90  1  0  0  0
 23 25  1  0  0  0
 23 24  1  0  0  0
 23 26  1  0  0  0
 24 25  1  0  0  0
 24 66  1  0  0  0
 24 67  1  0  0  0
 25 68  1  0  0  0
 25 69  1  0  0  0
 26 31  1  0  0  0
 26 27  2  0  0  0
 27 28  1  0  0  0
 27 70  1  0  0  0
 28 29  2  0  0  0
 28 71  1  0  0  0
 29 30  1  0  0  0
 29 72  1  0  0  0
 30 31  2  0  0  0
 30 32  1  0  0  0
 31 73  1  0  0  0
 32 33  1  0  0  0
 32 34  1  0  0  0
 32 35  1  0  0  0
 33 74  1  0  0  0
 33 75  1  0  0  0
 33 76  1  0  0  0
 34 77  1  0  0  0
 34 78  1  0  0  0
 34 79  1  0  0  0
 35 80  1  0  0  0
 35 81  1  0  0  0
 35 82  1  0  0  0
 36 83  1  0  0  0
 37 84  1  0  0  0
 37 85  1  0  0  0
 37 86  1  0  0  0
 38 87  1  0  0  0
 38 88  1  0  0  0
 38 89  1  0  0  0
M  CHG  1  22   1
M  END
> <s_m_source_file>
BACE_4.smi

> <i_m_source_file_index>
1

> <i_lp_mmshare_version>
42013

> <i_f3d_flags>
0

> <s_epik_input>
W0NIM11bQ0BASF0xW0NIMl1bQ0gyXVtDSDJdW0NIMl1bQ0gyXVtDSDJdT1tDSDJdQyg9TylOKFtDSDNdKVtDQEBIXShbQ0gzXSlDKD1PKVtOSF1bQ0BASF0oW0NIMl0xKVtDQEhdKFtPSF0pW0NIMl1bTkhdQzIoW0NIMl1bQ0gyXTIpYzNbY0hdW2NIXVtjSF1jKFtjSF0zKUMoW0NIM10pKFtDSDNdKVtDSDNd

> <s_epik_cmdline>
J2VwaWtfcHl0aG9uJywgJy1waCcsICc3LjAnLCAnLXRuJywgJzgnLCAnLW1hJywgJzIwMCcsICctaW1hZScsICc8aW5maWxlLm1hZT4nLCAnLW9tYWUnLCAnPG91dGZpbGUubWFlPic=

> <r_epik_Ionization_Penalty>
0.492833

> <r_epik_Ionization_Penalty_Charging>
0.492833

> <r_epik_Ionization_Penalty_Neutral>
2.58841e-07

> <r_epik_State_Penalty>
0.4987

> <r_epik_Charging_Adjusted_Penalty>
0.991533

> <i_epik_Tot_Q>
1

> <i_epik_Tot_abs_Q>
1

> <s_lp_Force_Field>
OPLS_2005

> <r_lp_Energy>
51.5247

> <b_lp_Chiralities_Consistent>
1

> <s_lp_Variant>
BACE_4.smi:1-2

$$$$
