BACE_14.smi:1
                    3D
 Structure written by MMmdl.
 85 89  0  0  1  0            999 V2000
    1.9093    2.7172    4.2804 C   0  0  0  0  0  0
    1.2073    3.8534    3.5186 C   0  0  0  0  0  0
   -0.2277    4.0725    4.0228 C   0  0  0  0  0  0
    1.2429    3.6238    2.0137 C   0  0  0  0  0  0
    1.9079    4.5403    1.1730 C   0  0  0  0  0  0
    1.9638    4.3150   -0.2150 C   0  0  0  0  0  0
    1.3520    3.1757   -0.7703 C   0  0  0  0  0  0
    0.6620    2.2615    0.0540 C   0  0  0  0  0  0
    0.6175    2.4931    1.4453 C   0  0  0  0  0  0
   -0.0003    1.0460   -0.5235 C   0  0  0  0  0  0
   -0.7348    1.1269   -1.8555 C   0  0  0  0  0  0
   -1.5123    0.9821   -0.5716 C   0  0  0  0  0  0
    0.7151   -0.1689   -0.1141 N   0  0  0  0  0  0
    0.6514   -1.3434   -0.9827 C   0  0  0  0  0  0
    1.4659   -2.5176   -0.4000 C   0  0  2  0  0  0
    2.9933   -2.2834   -0.1981 C   0  0  2  0  0  0
    3.3165   -1.9240    1.2746 C   0  0  0  0  0  0
    4.6731   -1.2664    1.4658 C   0  0  0  0  0  0
    5.8481   -2.0407    1.4049 C   0  0  0  0  0  0
    7.1030   -1.4178    1.5223 C   0  0  0  0  0  0
    7.1827   -0.0220    1.6853 C   0  0  0  0  0  0
    6.0172    0.7702    1.7418 C   0  0  0  0  0  0
    4.7560    0.1287    1.6566 C   0  0  0  0  0  0
    6.2101    2.1303    1.8687 O   0  0  0  0  0  0
    5.1240    3.0375    1.7000 C   0  0  0  0  0  0
    5.5601    4.1860    0.7798 C   0  0  0  0  0  0
    5.5497    3.8199   -0.7155 C   0  0  0  0  0  0
    6.7342    2.9467   -1.1578 C   0  0  0  0  0  0
    6.7133    2.6931   -2.5912 N   0  0  0  0  0  0
    5.8582    1.7394   -3.1660 C   0  0  0  0  0  0
    5.2942    0.6605   -2.4442 C   0  0  0  0  0  0
    4.4760   -0.2890   -3.0999 C   0  0  0  0  0  0
    4.2178   -0.1476   -4.4803 C   0  0  0  0  0  0
    4.7606    0.9322   -5.2124 C   0  0  0  0  0  0
    5.5809    1.8658   -4.5418 C   0  0  0  0  0  0
    4.4953    1.1041   -6.6692 C   0  0  0  0  0  0
    4.9245    2.0488   -7.3308 O   0  0  0  0  0  0
    3.6472    0.0441   -7.3707 C   0  0  0  0  0  0
    3.9326   -1.4828   -2.3686 C   0  0  0  0  0  0
    3.8268   -2.5711   -2.9344 O   0  0  0  0  0  0
    3.5345   -1.2642   -1.1059 N   0  0  0  0  0  0
    1.2787   -3.6448   -1.2305 O   0  0  0  0  0  0
    1.0237   -2.7996    0.5567 H   0  0  0  0  0  0
    3.5345   -3.2120   -0.3924 H   0  0  0  0  0  0
    2.9410    2.5993    3.9478 H   0  0  0  0  0  0
    1.4039    1.7617    4.1366 H   0  0  0  0  0  0
    1.9314    2.9200    5.3514 H   0  0  0  0  0  0
    1.7637    4.7686    3.7264 H   0  0  0  0  0  0
   -0.6984    4.9122    3.5102 H   0  0  0  0  0  0
   -0.2384    4.2917    5.0907 H   0  0  0  0  0  0
   -0.8510    3.1925    3.8616 H   0  0  0  0  0  0
    2.3886    5.4137    1.5888 H   0  0  0  0  0  0
    2.4852    5.0124   -0.8540 H   0  0  0  0  0  0
    1.4126    3.0088   -1.8357 H   0  0  0  0  0  0
    0.1009    1.7889    2.0810 H   0  0  0  0  0  0
   -0.7952    2.0927   -2.3529 H   0  0  0  0  0  0
   -0.7564    0.2711   -2.5259 H   0  0  0  0  0  0
   -1.9960    0.0230   -0.3981 H   0  0  0  0  0  0
   -2.0682    1.8514   -0.2257 H   0  0  0  0  0  0
    1.6714    0.0506    0.1452 H   0  0  0  0  0  0
   -0.3860   -1.6554   -1.1064 H   0  0  0  0  0  0
    1.0210   -1.0967   -1.9784 H   0  0  0  0  0  0
    2.5566   -1.2485    1.6686 H   0  0  0  0  0  0
    3.2622   -2.8191    1.8954 H   0  0  0  0  0  0
    5.7892   -3.1090    1.2556 H   0  0  0  0  0  0
    8.0058   -2.0084    1.4723 H   0  0  0  0  0  0
    8.1523    0.4489    1.7559 H   0  0  0  0  0  0
    3.8297    0.6764    1.7177 H   0  0  0  0  0  0
    4.2140    2.6151    1.2836 H   0  0  0  0  0  0
    4.8680    3.4318    2.6834 H   0  0  0  0  0  0
    4.8623    5.0112    0.9233 H   0  0  0  0  0  0
    6.5368    4.5680    1.0785 H   0  0  0  0  0  0
    4.6094    3.3289   -0.9682 H   0  0  0  0  0  0
    5.5684    4.7449   -1.2931 H   0  0  0  0  0  0
    7.6657    3.4652   -0.9306 H   0  0  0  0  0  0
    6.7746    2.0114   -0.6053 H   0  0  0  0  0  0
    7.0555    3.4321   -3.1887 H   0  0  0  0  0  0
    5.5075    0.5321   -1.3940 H   0  0  0  0  0  0
    3.5970   -0.8845   -4.9686 H   0  0  0  0  0  0
    6.0145    2.6922   -5.0875 H   0  0  0  0  0  0
    2.6492    0.0021   -6.9346 H   0  0  0  0  0  0
    4.1121   -0.9378   -7.2813 H   0  0  0  0  0  0
    3.5454    0.2766   -8.4310 H   0  0  0  0  0  0
    3.6418   -0.3321   -0.7330 H   0  0  0  0  0  0
    1.7323   -4.3797   -0.8473 H   0  0  0  0  0  0
  1  2  1  0  0  0
  1 45  1  0  0  0
  1 46  1  0  0  0
  1 47  1  0  0  0
  2  3  1  0  0  0
  2  4  1  0  0  0
  2 48  1  0  0  0
  3 49  1  0  0  0
  3 50  1  0  0  0
  3 51  1  0  0  0
  4  9  1  0  0  0
  4  5  2  0  0  0
  5  6  1  0  0  0
  5 52  1  0  0  0
  6  7  2  0  0  0
  6 53  1  0  0  0
  7  8  1  0  0  0
  7 54  1  0  0  0
  8  9  2  0  0  0
  8 10  1  0  0  0
  9 55  1  0  0  0
 10 12  1  0  0  0
 10 11  1  0  0  0
 10 13  1  0  0  0
 11 12  1  0  0  0
 11 56  1  0  0  0
 11 57  1  0  0  0
 12 58  1  0  0  0
 12 59  1  0  0  0
 13 14  1  0  0  0
 13 60  1  0  0  0
 14 15  1  0  0  0
 14 61  1  0  0  0
 14 62  1  0  0  0
 15 43  1  0  0  0
 15 16  1  0  0  0
 15 42  1  0  0  0
 16 44  1  0  0  0
 16 41  1  0  0  0
 16 17  1  0  0  0
 17 18  1  0  0  0
 17 63  1  0  0  0
 17 64  1  0  0  0
 18 23  1  0  0  0
 18 19  2  0  0  0
 19 20  1  0  0  0
 19 65  1  0  0  0
 20 21  2  0  0  0
 20 66  1  0  0  0
 21 22  1  0  0  0
 21 67  1  0  0  0
 22 23  2  0  0  0
 22 24  1  0  0  0
 23 68  1  0  0  0
 24 25  1  0  0  0
 25 26  1  0  0  0
 25 69  1  0  0  0
 25 70  1  0  0  0
 26 27  1  0  0  0
 26 71  1  0  0  0
 26 72  1  0  0  0
 27 28  1  0  0  0
 27 73  1  0  0  0
 27 74  1  0  0  0
 28 29  1  0  0  0
 28 75  1  0  0  0
 28 76  1  0  0  0
 29 30  1  0  0  0
 29 77  1  0  0  0
 30 35  1  0  0  0
 30 31  2  0  0  0
 31 32  1  0  0  0
 31 78  1  0  0  0
 32 33  2  0  0  0
 32 39  1  0  0  0
 33 34  1  0  0  0
 33 79  1  0  0  0
 34 35  2  0  0  0
 34 36  1  0  0  0
 35 80  1  0  0  0
 36 37  2  0  0  0
 36 38  1  0  0  0
 38 81  1  0  0  0
 38 82  1  0  0  0
 38 83  1  0  0  0
 39 40  2  0  0  0
 39 41  1  0  0  0
 41 84  1  0  0  0
 42 85  1  0  0  0
M  END
> <s_m_source_file>
BACE_14.smi

> <i_m_source_file_index>
1

> <i_lp_mmshare_version>
42013

> <i_f3d_flags>
0

> <s_epik_input>
W0NIM11bQ0hdKFtDSDNdKWMxW2NIXVtjSF1bY0hdYyhbY0hdMSlDMihbQ0gyXVtDSDJdMilbTkhdW0NIMl1bQ0BASF0oW09IXSlbQ0BIXShbQ0gyXTMpW05IXUMoPU8pYyhbY0hdYyhbY0hdNClDKD1PKVtDSDNdKVtjSF1jNFtOSF1bQ0gyXVtDSDJdW0NIMl1bQ0gyXU9jKFtjSF01KVtjSF1bY0hdW2NIXWMzNQ==

> <s_epik_cmdline>
J2VwaWtfcHl0aG9uJywgJy1waCcsICc3LjAnLCAnLXRuJywgJzgnLCAnLW1hJywgJzIwMCcsICctaW1hZScsICc8aW5maWxlLm1hZT4nLCAnLW9tYWUnLCAnPG91dGZpbGUubWFlPic=

> <r_lp_tautomer_probability>
0.99995

> <r_epik_Ionization_Penalty>
0.322992

> <r_epik_Ionization_Penalty_Charging>
0

> <r_epik_Ionization_Penalty_Neutral>
0.322992

> <r_epik_State_Penalty>
0.317604

> <r_epik_Charging_Adjusted_Penalty>
0.317604

> <i_epik_Tot_Q>
0

> <i_epik_Tot_abs_Q>
0

> <s_lp_Force_Field>
OPLS_2005

> <r_lp_Energy>
47.6892

> <b_lp_Chiralities_Consistent>
1

> <s_lp_Variant>
BACE_14.smi:1-1

$$$$
BACE_14.smi:1
                    3D
 Structure written by MMmdl.
 86 90  0  0  1  0            999 V2000
   -2.0516    4.3205    5.1900 C   0  0  0  0  0  0
   -1.2911    3.0231    4.8730 C   0  0  0  0  0  0
   -0.3405    2.6280    6.0144 C   0  0  0  0  0  0
   -0.5625    3.1126    3.5380 C   0  0  0  0  0  0
    0.4749    4.0503    3.3460 C   0  0  0  0  0  0
    1.1357    4.1320    2.1063 C   0  0  0  0  0  0
    0.7634    3.2776    1.0520 C   0  0  0  0  0  0
   -0.2692    2.3326    1.2292 C   0  0  0  0  0  0
   -0.9262    2.2571    2.4757 C   0  0  0  0  0  0
   -0.6667    1.4182    0.1086 C   0  0  0  0  0  0
   -0.9934    1.9132   -1.2814 C   0  0  0  0  0  0
   -2.0891    1.3568   -0.3956 C   0  0  0  0  0  0
   -0.0128    0.0922    0.1277 N   0  3  0  0  0  0
    1.4529    0.1193   -0.0607 C   0  0  0  0  0  0
    2.0175   -1.3000   -0.2424 C   0  0  2  0  0  0
    3.5664   -1.3366   -0.1904 C   0  0  2  0  0  0
    4.2693   -0.5160   -1.3035 C   0  0  0  0  0  0
    5.7376   -0.8674   -1.4762 C   0  0  0  0  0  0
    6.6929   -0.3946   -0.5551 C   0  0  0  0  0  0
    8.0399   -0.7767   -0.6866 C   0  0  0  0  0  0
    8.4272   -1.6442   -1.7254 C   0  0  0  0  0  0
    7.4835   -2.1330   -2.6524 C   0  0  0  0  0  0
    6.1359   -1.7108   -2.5336 C   0  0  0  0  0  0
    7.9584   -3.0071   -3.6084 O   0  0  0  0  0  0
    7.0547   -3.7281   -4.4432 C   0  0  0  0  0  0
    7.4972   -5.1959   -4.5239 C   0  0  0  0  0  0
    7.0961   -6.0306   -3.2933 C   0  0  0  0  0  0
    7.9390   -5.7499   -2.0381 C   0  0  0  0  0  0
    7.5515   -6.6010   -0.9222 N   0  0  0  0  0  0
    6.4110   -6.3387   -0.1462 C   0  0  0  0  0  0
    5.8070   -5.0619   -0.0513 C   0  0  0  0  0  0
    4.6797   -4.8626    0.7802 C   0  0  0  0  0  0
    4.1590   -5.9501    1.5144 C   0  0  0  0  0  0
    4.7441   -7.2332    1.4236 C   0  0  0  0  0  0
    5.8696   -7.4114    0.5898 C   0  0  0  0  0  0
    4.2064   -8.3964    2.1850 C   0  0  0  0  0  0
    4.6498   -9.5394    2.0806 O   0  0  0  0  0  0
    3.0472   -8.1455    3.1481 C   0  0  0  0  0  0
    4.0695   -3.5001    0.9505 C   0  0  0  0  0  0
    3.5775   -3.1624    2.0277 O   0  0  0  0  0  0
    4.0558   -2.7188   -0.1418 N   0  0  0  0  0  0
    1.5648   -1.8024   -1.4858 O   0  0  0  0  0  0
    1.6149   -1.9364    0.5468 H   0  0  0  0  0  0
    3.8762   -0.8806    0.7523 H   0  0  0  0  0  0
   -2.7608    4.5620    4.3977 H   0  0  0  0  0  0
   -1.3748    5.1681    5.3007 H   0  0  0  0  0  0
   -2.6162    4.2263    6.1180 H   0  0  0  0  0  0
   -2.0359    2.2302    4.7910 H   0  0  0  0  0  0
    0.1496    1.6771    5.8040 H   0  0  0  0  0  0
   -0.8821    2.5173    6.9542 H   0  0  0  0  0  0
    0.4367    3.3766    6.1700 H   0  0  0  0  0  0
    0.7665    4.7127    4.1478 H   0  0  0  0  0  0
    1.9277    4.8525    1.9638 H   0  0  0  0  0  0
    1.2758    3.3479    0.1035 H   0  0  0  0  0  0
   -1.7195    1.5366    2.6135 H   0  0  0  0  0  0
   -0.9956    2.9879   -1.4532 H   0  0  0  0  0  0
   -0.6943    1.3054   -2.1335 H   0  0  0  0  0  0
   -2.5026    0.3894   -0.6751 H   0  0  0  0  0  0
   -2.8056    2.0714    0.0053 H   0  0  0  0  0  0
   -0.2199   -0.3621    1.0056 H   0  0  0  0  0  0
    1.7010    0.7424   -0.9213 H   0  0  0  0  0  0
    1.9059    0.5859    0.8147 H   0  0  0  0  0  0
    3.7718   -0.6700   -2.2614 H   0  0  0  0  0  0
    4.1831    0.5506   -1.0938 H   0  0  0  0  0  0
    6.3937    0.2503    0.2585 H   0  0  0  0  0  0
    8.7745   -0.4178    0.0191 H   0  0  0  0  0  0
    9.4605   -1.9489   -1.8048 H   0  0  0  0  0  0
    5.3740   -2.0291   -3.2259 H   0  0  0  0  0  0
    6.0155   -3.7254   -4.1264 H   0  0  0  0  0  0
    7.0854   -3.2745   -5.4342 H   0  0  0  0  0  0
    7.0166   -5.6402   -5.3961 H   0  0  0  0  0  0
    8.5703   -5.2643   -4.7064 H   0  0  0  0  0  0
    6.0381   -5.8773   -3.0767 H   0  0  0  0  0  0
    7.1986   -7.0861   -3.5479 H   0  0  0  0  0  0
    8.9873   -5.9530   -2.2576 H   0  0  0  0  0  0
    7.8966   -4.7032   -1.7487 H   0  0  0  0  0  0
    7.9009   -7.5487   -0.9305 H   0  0  0  0  0  0
    6.2170   -4.2209   -0.5892 H   0  0  0  0  0  0
    3.3034   -5.7829    2.1522 H   0  0  0  0  0  0
    6.3362   -8.3837    0.5149 H   0  0  0  0  0  0
    2.1660   -7.8029    2.6056 H   0  0  0  0  0  0
    3.3209   -7.3918    3.8868 H   0  0  0  0  0  0
    2.7860   -9.0617    3.6780 H   0  0  0  0  0  0
    4.4665   -3.0861   -0.9883 H   0  0  0  0  0  0
    1.9009   -2.6795   -1.5955 H   0  0  0  0  0  0
   -0.4082   -0.4595   -0.6202 H   0  0  0  0  0  0
  1  2  1  0  0  0
  1 45  1  0  0  0
  1 46  1  0  0  0
  1 47  1  0  0  0
  2  3  1  0  0  0
  2  4  1  0  0  0
  2 48  1  0  0  0
  3 49  1  0  0  0
  3 50  1  0  0  0
  3 51  1  0  0  0
  4  9  1  0  0  0
  4  5  2  0  0  0
  5  6  1  0  0  0
  5 52  1  0  0  0
  6  7  2  0  0  0
  6 53  1  0  0  0
  7  8  1  0  0  0
  7 54  1  0  0  0
  8  9  2  0  0  0
  8 10  1  0  0  0
  9 55  1  0  0  0
 10 12  1  0  0  0
 10 11  1  0  0  0
 10 13  1  0  0  0
 11 12  1  0  0  0
 11 56  1  0  0  0
 11 57  1  0  0  0
 12 58  1  0  0  0
 12 59  1  0  0  0
 13 14  1  0  0  0
 13 60  1  0  0  0
 13 86  1  0  0  0
 14 15  1  0  0  0
 14 61  1  0  0  0
 14 62  1  0  0  0
 15 43  1  0  0  0
 15 16  1  0  0  0
 15 42  1  0  0  0
 16 44  1  0  0  0
 16 41  1  0  0  0
 16 17  1  0  0  0
 17 18  1  0  0  0
 17 63  1  0  0  0
 17 64  1  0  0  0
 18 23  1  0  0  0
 18 19  2  0  0  0
 19 20  1  0  0  0
 19 65  1  0  0  0
 20 21  2  0  0  0
 20 66  1  0  0  0
 21 22  1  0  0  0
 21 67  1  0  0  0
 22 23  2  0  0  0
 22 24  1  0  0  0
 23 68  1  0  0  0
 24 25  1  0  0  0
 25 26  1  0  0  0
 25 69  1  0  0  0
 25 70  1  0  0  0
 26 27  1  0  0  0
 26 71  1  0  0  0
 26 72  1  0  0  0
 27 28  1  0  0  0
 27 73  1  0  0  0
 27 74  1  0  0  0
 28 29  1  0  0  0
 28 75  1  0  0  0
 28 76  1  0  0  0
 29 30  1  0  0  0
 29 77  1  0  0  0
 30 35  1  0  0  0
 30 31  2  0  0  0
 31 32  1  0  0  0
 31 78  1  0  0  0
 32 33  2  0  0  0
 32 39  1  0  0  0
 33 34  1  0  0  0
 33 79  1  0  0  0
 34 35  2  0  0  0
 34 36  1  0  0  0
 35 80  1  0  0  0
 36 37  2  0  0  0
 36 38  1  0  0  0
 38 81  1  0  0  0
 38 82  1  0  0  0
 38 83  1  0  0  0
 39 40  2  0  0  0
 39 41  1  0  0  0
 41 84  1  0  0  0
 42 85  1  0  0  0
M  CHG  1  13   1
M  END
> <s_m_source_file>
BACE_14.smi

> <i_m_source_file_index>
1

> <i_lp_mmshare_version>
42013

> <i_f3d_flags>
0

> <s_epik_input>
W0NIM11bQ0hdKFtDSDNdKWMxW2NIXVtjSF1bY0hdYyhbY0hdMSlDMihbQ0gyXVtDSDJdMilbTkhdW0NIMl1bQ0BASF0oW09IXSlbQ0BIXShbQ0gyXTMpW05IXUMoPU8pYyhbY0hdYyhbY0hdNClDKD1PKVtDSDNdKVtjSF1jNFtOSF1bQ0gyXVtDSDJdW0NIMl1bQ0gyXU9jKFtjSF01KVtjSF1bY0hdW2NIXWMzNQ==

> <s_epik_cmdline>
J2VwaWtfcHl0aG9uJywgJy1waCcsICc3LjAnLCAnLXRuJywgJzgnLCAnLW1hJywgJzIwMCcsICctaW1hZScsICc8aW5maWxlLm1hZT4nLCAnLW9tYWUnLCAnPG91dGZpbGUubWFlPic=

> <r_lp_tautomer_probability>
0.99995

> <r_epik_Ionization_Penalty>
0.51374

> <r_epik_Ionization_Penalty_Charging>
0.513699

> <r_epik_Ionization_Penalty_Neutral>
4.03684e-05

> <r_epik_State_Penalty>
0.521152

> <r_epik_Charging_Adjusted_Penalty>
1.03485

> <i_epik_Tot_Q>
1

> <i_epik_Tot_abs_Q>
1

> <s_lp_Force_Field>
OPLS_2005

> <r_lp_Energy>
46.5551

> <b_lp_Chiralities_Consistent>
1

> <s_lp_Variant>
BACE_14.smi:1-2

$$$$
