BACE_12.smi:1
                    3D
 Structure written by MMmdl.
 79 82  0  0  1  0            999 V2000
   -3.5040    0.7852   -4.5392 C   0  0  0  0  0  0
   -4.0109    1.2658   -3.1709 C   0  0  0  0  0  0
   -5.0972    2.3433   -3.3149 C   0  0  0  0  0  0
   -2.8642    1.7339   -2.2838 C   0  0  0  0  0  0
   -2.0918    2.8610   -2.6408 C   0  0  0  0  0  0
   -1.0302    3.2843   -1.8189 C   0  0  0  0  0  0
   -0.7305    2.5820   -0.6368 C   0  0  0  0  0  0
   -1.4926    1.4523   -0.2734 C   0  0  0  0  0  0
   -2.5597    1.0347   -1.0959 C   0  0  0  0  0  0
   -1.1615    0.6804    0.9912 C   0  0  0  0  0  0
   -0.4318   -0.5721    0.7014 N   0  3  0  0  0  0
    0.9310   -0.3928    0.1555 C   0  0  0  0  0  0
    1.6196   -1.7485   -0.0852 C   0  0  2  0  0  0
    3.1282   -1.6015   -0.4237 C   0  0  2  0  0  0
    3.4102   -0.8983   -1.7749 C   0  0  0  0  0  0
    4.8871   -0.8112   -2.1260 C   0  0  0  0  0  0
    5.7212    0.0841   -1.4254 C   0  0  0  0  0  0
    7.0877    0.1774   -1.7481 C   0  0  0  0  0  0
    7.6249   -0.6218   -2.7746 C   0  0  0  0  0  0
    6.7996   -1.5212   -3.4817 C   0  0  0  0  0  0
    5.4295   -1.6132   -3.1544 C   0  0  0  0  0  0
    7.3953   -2.3804   -4.5861 C   0  0  0  0  0  0
    8.2599   -3.5290   -4.0384 C   0  0  0  0  0  0
    7.4419   -4.6903   -3.4472 C   0  0  0  0  0  0
    8.1524   -5.3532   -2.2543 C   0  0  0  0  0  0
    7.3991   -6.4644   -1.6892 N   0  0  0  0  0  0
    6.4139   -6.2578   -0.7123 C   0  0  0  0  0  0
    5.8183   -4.9978   -0.4754 C   0  0  0  0  0  0
    4.8025   -4.8944    0.4981 C   0  0  0  0  0  0
    4.4607   -6.0437    1.2400 C   0  0  0  0  0  0
    5.1207   -7.2625    0.9469 C   0  0  0  0  0  0
    6.0642   -7.3596   -0.0152 N   0  0  0  0  0  0
    4.8743   -8.4569    1.5878 O   0  0  0  0  0  0
    3.9109   -8.4643    2.6306 C   0  0  0  0  0  0
    4.1074   -3.5898    0.7463 C   0  0  0  0  0  0
    3.7864   -3.2424    1.8829 O   0  0  0  0  0  0
    3.8155   -2.8913   -0.3634 N   0  0  0  0  0  0
    0.9467   -2.4035   -1.1442 O   0  0  0  0  0  0
    1.5031   -2.3537    0.8144 H   0  0  0  0  0  0
    3.5801   -0.9844    0.3553 H   0  0  0  0  0  0
   -2.7712   -0.0143   -4.4262 H   0  0  0  0  0  0
   -3.0327    1.5929   -5.0999 H   0  0  0  0  0  0
   -4.3225    0.3970   -5.1458 H   0  0  0  0  0  0
   -4.4772    0.4080   -2.6844 H   0  0  0  0  0  0
   -5.4865    2.6395   -2.3405 H   0  0  0  0  0  0
   -5.9361    1.9754   -3.9059 H   0  0  0  0  0  0
   -4.7162    3.2381   -3.8077 H   0  0  0  0  0  0
   -2.3092    3.4059   -3.5477 H   0  0  0  0  0  0
   -0.4439    4.1475   -2.0973 H   0  0  0  0  0  0
    0.0893    2.9101   -0.0146 H   0  0  0  0  0  0
   -3.1417    0.1687   -0.8158 H   0  0  0  0  0  0
   -0.5801    1.2985    1.6767 H   0  0  0  0  0  0
   -2.0898    0.4306    1.5059 H   0  0  0  0  0  0
   -0.3579   -1.0986    1.5600 H   0  0  0  0  0  0
    0.8882    0.1796   -0.7713 H   0  0  0  0  0  0
    1.5104    0.1949    0.8688 H   0  0  0  0  0  0
    2.8949   -1.4143   -2.5856 H   0  0  0  0  0  0
    3.0092    0.1154   -1.7623 H   0  0  0  0  0  0
    5.3146    0.7029   -0.6389 H   0  0  0  0  0  0
    7.7242    0.8638   -1.2096 H   0  0  0  0  0  0
    8.6747   -0.5440   -3.0175 H   0  0  0  0  0  0
    4.7947   -2.3018   -3.6930 H   0  0  0  0  0  0
    6.6063   -2.7709   -5.2302 H   0  0  0  0  0  0
    8.0089   -1.7357   -5.2164 H   0  0  0  0  0  0
    8.8838   -3.9249   -4.8404 H   0  0  0  0  0  0
    8.9543   -3.1299   -3.2977 H   0  0  0  0  0  0
    6.4606   -4.3325   -3.1424 H   0  0  0  0  0  0
    7.2494   -5.4290   -4.2263 H   0  0  0  0  0  0
    9.1210   -5.7367   -2.5757 H   0  0  0  0  0  0
    8.3596   -4.6185   -1.4754 H   0  0  0  0  0  0
    7.7980   -7.3889   -1.7687 H   0  0  0  0  0  0
    6.1178   -4.1197   -1.0259 H   0  0  0  0  0  0
    3.6972   -5.9787    2.0008 H   0  0  0  0  0  0
    3.8369   -9.4694    3.0451 H   0  0  0  0  0  0
    2.9226   -8.1860    2.2624 H   0  0  0  0  0  0
    4.1964   -7.7932    3.4417 H   0  0  0  0  0  0
    4.1136   -3.2821   -1.2458 H   0  0  0  0  0  0
    1.3468   -3.2501   -1.2766 H   0  0  0  0  0  0
   -0.9711   -1.1120    0.0394 H   0  0  0  0  0  0
  1  2  1  0  0  0
  1 41  1  0  0  0
  1 42  1  0  0  0
  1 43  1  0  0  0
  2  3  1  0  0  0
  2  4  1  0  0  0
  2 44  1  0  0  0
  3 45  1  0  0  0
  3 46  1  0  0  0
  3 47  1  0  0  0
  4  9  1  0  0  0
  4  5  2  0  0  0
  5  6  1  0  0  0
  5 48  1  0  0  0
  6  7  2  0  0  0
  6 49  1  0  0  0
  7  8  1  0  0  0
  7 50  1  0  0  0
  8  9  2  0  0  0
  8 10  1  0  0  0
  9 51  1  0  0  0
 10 11  1  0  0  0
 10 52  1  0  0  0
 10 53  1  0  0  0
 11 12  1  0  0  0
 11 54  1  0  0  0
 11 79  1  0  0  0
 12 13  1  0  0  0
 12 55  1  0  0  0
 12 56  1  0  0  0
 13 39  1  0  0  0
 13 14  1  0  0  0
 13 38  1  0  0  0
 14 40  1  0  0  0
 14 37  1  0  0  0
 14 15  1  0  0  0
 15 16  1  0  0  0
 15 57  1  0  0  0
 15 58  1  0  0  0
 16 21  1  0  0  0
 16 17  2  0  0  0
 17 18  1  0  0  0
 17 59  1  0  0  0
 18 19  2  0  0  0
 18 60  1  0  0  0
 19 20  1  0  0  0
 19 61  1  0  0  0
 20 21  2  0  0  0
 20 22  1  0  0  0
 21 62  1  0  0  0
 22 23  1  0  0  0
 22 63  1  0  0  0
 22 64  1  0  0  0
 23 24  1  0  0  0
 23 65  1  0  0  0
 23 66  1  0  0  0
 24 25  1  0  0  0
 24 67  1  0  0  0
 24 68  1  0  0  0
 25 26  1  0  0  0
 25 69  1  0  0  0
 25 70  1  0  0  0
 26 27  1  0  0  0
 26 71  1  0  0  0
 27 32  1  0  0  0
 27 28  2  0  0  0
 28 29  1  0  0  0
 28 72  1  0  0  0
 29 30  2  0  0  0
 29 35  1  0  0  0
 30 31  1  0  0  0
 30 73  1  0  0  0
 31 32  2  0  0  0
 31 33  1  0  0  0
 33 34  1  0  0  0
 34 74  1  0  0  0
 34 75  1  0  0  0
 34 76  1  0  0  0
 35 36  2  0  0  0
 35 37  1  0  0  0
 37 77  1  0  0  0
 38 78  1  0  0  0
M  CHG  1  11   1
M  END
> <s_m_source_file>
BACE_12.smi

> <i_m_source_file_index>
1

> <i_lp_mmshare_version>
42013

> <i_f3d_flags>
0

> <s_epik_input>
W0NIM11bQ0hdKFtDSDNdKWMxW2NIXVtjSF1bY0hdYyhbY0hdMSlbQ0gyXVtOSF1bQ0gyXVtDQEBIXShbT0hdKVtDQEhdKFtDSDJdMilbTkhdQyg9TyljKFtjSF1jKG4zKU9bQ0gzXSlbY0hdYzNbTkhdW0NIMl1bQ0gyXVtDSDJdW0NIMl1jKFtjSF00KVtjSF1bY0hdW2NIXWMyNA==

> <s_epik_cmdline>
J2VwaWtfcHl0aG9uJywgJy1waCcsICc3LjAnLCAnLXRuJywgJzgnLCAnLW1hJywgJzIwMCcsICctaW1hZScsICc8aW5maWxlLm1hZT4nLCAnLW9tYWUnLCAnPG91dGZpbGUubWFlPic=

> <r_lp_tautomer_probability>
1

> <r_epik_Ionization_Penalty>
0.0200825

> <r_epik_Ionization_Penalty_Charging>
0.0200546

> <r_epik_Ionization_Penalty_Neutral>
2.78717e-05

> <r_epik_State_Penalty>
0.0160525

> <r_epik_Charging_Adjusted_Penalty>
0.0361071

> <i_epik_Tot_Q>
1

> <i_epik_Tot_abs_Q>
1

> <s_lp_Force_Field>
OPLS_2005

> <r_lp_Energy>
26.9767

> <b_lp_Chiralities_Consistent>
1

> <s_lp_Variant>
BACE_12.smi:1-1

$$$$
BACE_12.smi:1
                    3D
 Structure written by MMmdl.
 78 81  0  0  1  0            999 V2000
   -4.1818    0.2596    3.4592 C   0  0  0  0  0  0
   -4.5782   -0.3735    2.1160 C   0  0  0  0  0  0
   -4.2204   -1.8673    2.0683 C   0  0  0  0  0  0
   -3.9787    0.3823    0.9369 C   0  0  0  0  0  0
   -4.8209    0.9830   -0.0233 C   0  0  0  0  0  0
   -4.2683    1.6793   -1.1155 C   0  0  0  0  0  0
   -2.8710    1.7767   -1.2580 C   0  0  0  0  0  0
   -2.0198    1.1759   -0.3082 C   0  0  0  0  0  0
   -2.5784    0.4866    0.7897 C   0  0  0  0  0  0
   -0.5138    1.2867   -0.4577 C   0  0  0  0  0  0
    0.1542   -0.0002   -0.2940 N   0  0  0  0  0  0
    1.6051    0.1051   -0.1840 C   0  0  0  0  0  0
    2.2448   -1.2732    0.0642 C   0  0  2  0  0  0
    1.8183   -1.9242    1.4107 C   0  0  2  0  0  0
    2.2963   -1.1612    2.6702 C   0  0  0  0  0  0
    1.8893   -1.8253    3.9759 C   0  0  0  0  0  0
    0.5399   -1.7955    4.3850 C   0  0  0  0  0  0
    0.1543   -2.4051    5.5933 C   0  0  0  0  0  0
    1.1164   -3.0438    6.3985 C   0  0  0  0  0  0
    2.4689   -3.0797    5.9983 C   0  0  0  0  0  0
    2.8519   -2.4680    4.7853 C   0  0  0  0  0  0
    3.4977   -3.7755    6.8765 C   0  0  0  0  0  0
    3.4103   -5.3092    6.7891 C   0  0  0  0  0  0
    4.0087   -5.8907    5.4959 C   0  0  0  0  0  0
    3.2719   -7.1618    5.0374 C   0  0  0  0  0  0
    3.8110   -7.7238    3.8060 N   0  0  0  0  0  0
    3.3484   -7.2937    2.5534 C   0  0  0  0  0  0
    2.7014   -6.0514    2.3603 C   0  0  0  0  0  0
    2.3103   -5.6781    1.0571 C   0  0  0  0  0  0
    2.5261   -6.5895    0.0039 C   0  0  0  0  0  0
    3.1629   -7.8134    0.2870 C   0  0  0  0  0  0
    3.5751   -8.1509    1.5349 N   0  0  0  0  0  0
    3.3816   -8.6968   -0.7499 O   0  0  0  0  0  0
    4.0223   -9.9342   -0.4600 C   0  0  0  0  0  0
    1.6723   -4.3474    0.8001 C   0  0  0  0  0  0
    0.7554   -4.2236   -0.0119 O   0  0  0  0  0  0
    2.2263   -3.3263    1.4739 N   0  0  0  0  0  0
    3.6479   -1.1016    0.0342 O   0  0  0  0  0  0
    1.9790   -1.9242   -0.7694 H   0  0  0  0  0  0
    0.7275   -1.9342    1.4469 H   0  0  0  0  0  0
   -4.4795    1.3078    3.5006 H   0  0  0  0  0  0
   -3.1053    0.2115    3.6261 H   0  0  0  0  0  0
   -4.6660   -0.2526    4.2909 H   0  0  0  0  0  0
   -5.6638   -0.3014    2.0372 H   0  0  0  0  0  0
   -4.5554   -2.3203    1.1347 H   0  0  0  0  0  0
   -4.6957   -2.4100    2.8859 H   0  0  0  0  0  0
   -3.1448   -2.0271    2.1489 H   0  0  0  0  0  0
   -5.8946    0.9133    0.0724 H   0  0  0  0  0  0
   -4.9177    2.1388   -1.8461 H   0  0  0  0  0  0
   -2.4558    2.3130   -2.0989 H   0  0  0  0  0  0
   -1.9268    0.0315    1.5215 H   0  0  0  0  0  0
   -0.2657    1.7180   -1.4282 H   0  0  0  0  0  0
   -0.1621    1.9903    0.2979 H   0  0  0  0  0  0
   -0.0682   -0.5943   -1.0866 H   0  0  0  0  0  0
    2.0070    0.5308   -1.1046 H   0  0  0  0  0  0
    1.8752    0.7963    0.6146 H   0  0  0  0  0  0
    3.3813   -1.0533    2.6581 H   0  0  0  0  0  0
    1.8930   -0.1487    2.6718 H   0  0  0  0  0  0
   -0.2024   -1.3050    3.7720 H   0  0  0  0  0  0
   -0.8801   -2.3818    5.9032 H   0  0  0  0  0  0
    0.8127   -3.5087    7.3250 H   0  0  0  0  0  0
    3.8861   -2.4942    4.4744 H   0  0  0  0  0  0
    4.5031   -3.4362    6.6236 H   0  0  0  0  0  0
    3.3237   -3.4623    7.9066 H   0  0  0  0  0  0
    3.9387   -5.7497    7.6353 H   0  0  0  0  0  0
    2.3690   -5.6134    6.9038 H   0  0  0  0  0  0
    3.9831   -5.1397    4.7094 H   0  0  0  0  0  0
    5.0666   -6.1060    5.6513 H   0  0  0  0  0  0
    3.3485   -7.9240    5.8129 H   0  0  0  0  0  0
    2.2070   -6.9625    4.9115 H   0  0  0  0  0  0
    4.2234   -8.6441    3.8593 H   0  0  0  0  0  0
    2.5080   -5.3812    3.1827 H   0  0  0  0  0  0
    2.2272   -6.3523   -1.0070 H   0  0  0  0  0  0
    4.1146  -10.5152   -1.3775 H   0  0  0  0  0  0
    3.4436  -10.5272    0.2497 H   0  0  0  0  0  0
    5.0269   -9.7804   -0.0637 H   0  0  0  0  0  0
    2.9869   -3.5439    2.1013 H   0  0  0  0  0  0
    4.0539   -1.9510    0.1165 H   0  0  0  0  0  0
  1  2  1  0  0  0
  1 41  1  0  0  0
  1 42  1  0  0  0
  1 43  1  0  0  0
  2  3  1  0  0  0
  2  4  1  0  0  0
  2 44  1  0  0  0
  3 45  1  0  0  0
  3 46  1  0  0  0
  3 47  1  0  0  0
  4  9  1  0  0  0
  4  5  2  0  0  0
  5  6  1  0  0  0
  5 48  1  0  0  0
  6  7  2  0  0  0
  6 49  1  0  0  0
  7  8  1  0  0  0
  7 50  1  0  0  0
  8  9  2  0  0  0
  8 10  1  0  0  0
  9 51  1  0  0  0
 10 11  1  0  0  0
 10 52  1  0  0  0
 10 53  1  0  0  0
 11 12  1  0  0  0
 11 54  1  0  0  0
 12 13  1  0  0  0
 12 55  1  0  0  0
 12 56  1  0  0  0
 13 39  1  0  0  0
 13 14  1  0  0  0
 13 38  1  0  0  0
 14 40  1  0  0  0
 14 37  1  0  0  0
 14 15  1  0  0  0
 15 16  1  0  0  0
 15 57  1  0  0  0
 15 58  1  0  0  0
 16 21  1  0  0  0
 16 17  2  0  0  0
 17 18  1  0  0  0
 17 59  1  0  0  0
 18 19  2  0  0  0
 18 60  1  0  0  0
 19 20  1  0  0  0
 19 61  1  0  0  0
 20 21  2  0  0  0
 20 22  1  0  0  0
 21 62  1  0  0  0
 22 23  1  0  0  0
 22 63  1  0  0  0
 22 64  1  0  0  0
 23 24  1  0  0  0
 23 65  1  0  0  0
 23 66  1  0  0  0
 24 25  1  0  0  0
 24 67  1  0  0  0
 24 68  1  0  0  0
 25 26  1  0  0  0
 25 69  1  0  0  0
 25 70  1  0  0  0
 26 27  1  0  0  0
 26 71  1  0  0  0
 27 32  1  0  0  0
 27 28  2  0  0  0
 28 29  1  0  0  0
 28 72  1  0  0  0
 29 30  2  0  0  0
 29 35  1  0  0  0
 30 31  1  0  0  0
 30 73  1  0  0  0
 31 32  2  0  0  0
 31 33  1  0  0  0
 33 34  1  0  0  0
 34 74  1  0  0  0
 34 75  1  0  0  0
 34 76  1  0  0  0
 35 36  2  0  0  0
 35 37  1  0  0  0
 37 77  1  0  0  0
 38 78  1  0  0  0
M  END
> <s_m_source_file>
BACE_12.smi

> <i_m_source_file_index>
1

> <i_lp_mmshare_version>
42013

> <i_f3d_flags>
0

> <s_epik_input>
W0NIM11bQ0hdKFtDSDNdKWMxW2NIXVtjSF1bY0hdYyhbY0hdMSlbQ0gyXVtOSF1bQ0gyXVtDQEBIXShbT0hdKVtDQEhdKFtDSDJdMilbTkhdQyg9TyljKFtjSF1jKG4zKU9bQ0gzXSlbY0hdYzNbTkhdW0NIMl1bQ0gyXVtDSDJdW0NIMl1jKFtjSF00KVtjSF1bY0hdW2NIXWMyNA==

> <s_epik_cmdline>
J2VwaWtfcHl0aG9uJywgJy1waCcsICc3LjAnLCAnLXRuJywgJzgnLCAnLW1hJywgJzIwMCcsICctaW1hZScsICc8aW5maWxlLm1hZT4nLCAnLW9tYWUnLCAnPG91dGZpbGUubWFlPic=

> <r_lp_tautomer_probability>
1

> <r_epik_Ionization_Penalty>
2.01611

> <r_epik_Ionization_Penalty_Charging>
0

> <r_epik_Ionization_Penalty_Neutral>
2.01611

> <r_epik_State_Penalty>
2.14597

> <r_epik_Charging_Adjusted_Penalty>
2.14597

> <i_epik_Tot_Q>
0

> <i_epik_Tot_abs_Q>
0

> <s_lp_Force_Field>
OPLS_2005

> <r_lp_Energy>
24.9256

> <b_lp_Chiralities_Consistent>
1

> <s_lp_Variant>
BACE_12.smi:1-2

$$$$
