BACE_10.smi:1
                    3D
 Structure written by MMmdl.
 86 88  0  0  1  0            999 V2000
   -0.2187    4.6100   -3.1909 C   0  0  0  0  0  0
   -0.5910    3.9273   -1.8610 C   0  0  2  0  0  0
   -0.4846    4.9052   -0.6645 C   0  0  0  0  0  0
   -1.3834    6.1487   -0.7713 C   0  0  0  0  0  0
   -2.7352    5.7366   -0.9091 O   0  0  0  0  0  0
   -3.5472    6.0133    0.2198 C   0  0  0  0  0  0
   -4.9146    5.3453    0.0147 C   0  0  0  0  0  0
   -4.8813    3.8200    0.2097 C   0  0  0  0  0  0
   -4.9024    3.4149    1.6927 C   0  0  0  0  0  0
   -4.8196    1.9719    1.8740 N   0  0  0  0  0  0
   -3.5977    1.3819    2.2294 C   0  0  0  0  0  0
   -3.6275    0.1549    2.9233 C   0  0  0  0  0  0
   -2.4308   -0.4685    3.3358 C   0  0  0  0  0  0
   -1.1929    0.1277    3.0236 C   0  0  0  0  0  0
   -1.1458    1.3355    2.2974 C   0  0  0  0  0  0
   -2.3494    1.9685    1.9192 C   0  0  0  0  0  0
    0.1806    1.9598    1.9833 C   0  0  0  0  0  0
    0.9496    2.2492    2.8968 O   0  0  0  0  0  0
    0.5097    2.1742    0.6955 N   0  0  0  0  0  0
   -0.1594    1.7098   -0.5266 C   0  0  1  0  0  0
    0.2578    2.6434   -1.6906 C   0  0  0  0  0  0
    0.1868    0.2224   -0.8404 C   0  0  1  0  0  0
    1.6124   -0.2221   -0.4571 C   0  0  0  0  0  0
    1.9004   -1.5860   -0.9496 N   0  3  0  0  0  0
    3.2308   -2.1176   -0.5836 C   0  0  0  0  0  0
    3.3908   -2.2615    0.9197 C   0  0  0  0  0  0
    4.2372   -1.3866    1.6322 C   0  0  0  0  0  0
    4.3581   -1.5048    3.0295 C   0  0  0  0  0  0
    3.6322   -2.4945    3.7192 C   0  0  0  0  0  0
    2.7821   -3.3749    3.0159 C   0  0  0  0  0  0
    2.6699   -3.2557    1.6132 C   0  0  0  0  0  0
    1.9839   -4.4296    3.7713 C   0  0  0  0  0  0
    2.3524   -5.8538    3.3270 C   0  0  0  0  0  0
    0.4734   -4.1722    3.6612 C   0  0  0  0  0  0
   -0.7553   -0.6190   -0.2045 O   0  0  0  0  0  0
   -2.4574   -1.7910    4.0800 C   0  0  0  0  0  0
   -3.6656   -1.9955    4.7944 O   0  0  0  0  0  0
   -3.6913   -3.2415    5.4685 C   0  0  0  0  0  0
   -1.6322    3.6132   -1.9450 H   0  0  0  0  0  0
   -1.2414    1.7972   -0.4402 H   0  0  0  0  0  0
    0.0422    0.0406   -1.9057 H   0  0  0  0  0  0
    0.7911    5.0199   -3.1564 H   0  0  0  0  0  0
   -0.9029    5.4217   -3.4362 H   0  0  0  0  0  0
   -0.2623    3.9072   -4.0232 H   0  0  0  0  0  0
   -0.7625    4.3947    0.2555 H   0  0  0  0  0  0
    0.5522    5.2189   -0.5382 H   0  0  0  0  0  0
   -1.2385    6.7926    0.0984 H   0  0  0  0  0  0
   -1.1095    6.7540   -1.6346 H   0  0  0  0  0  0
   -3.0762    5.6569    1.1369 H   0  0  0  0  0  0
   -3.6681    7.0934    0.3123 H   0  0  0  0  0  0
   -5.6438    5.7805    0.6991 H   0  0  0  0  0  0
   -5.2718    5.5774   -0.9892 H   0  0  0  0  0  0
   -5.7518    3.3828   -0.2808 H   0  0  0  0  0  0
   -4.0091    3.4007   -0.2936 H   0  0  0  0  0  0
   -4.1106    3.9163    2.2492 H   0  0  0  0  0  0
   -5.8369    3.7500    2.1433 H   0  0  0  0  0  0
   -5.6615    1.5055    2.1808 H   0  0  0  0  0  0
   -4.5790   -0.3028    3.1524 H   0  0  0  0  0  0
   -0.2750   -0.3546    3.3293 H   0  0  0  0  0  0
   -2.3029    2.9050    1.3832 H   0  0  0  0  0  0
    1.3920    2.6416    0.5456 H   0  0  0  0  0  0
    0.1709    2.0899   -2.6257 H   0  0  0  0  0  0
    1.3160    2.8982   -1.6122 H   0  0  0  0  0  0
    2.3448    0.4641   -0.8840 H   0  0  0  0  0  0
    1.7344   -0.1923    0.6257 H   0  0  0  0  0  0
    1.1972   -2.2074   -0.5753 H   0  0  0  0  0  0
    3.3582   -3.0955   -1.0490 H   0  0  0  0  0  0
    4.0087   -1.4703   -0.9910 H   0  0  0  0  0  0
    4.7910   -0.6180    1.1129 H   0  0  0  0  0  0
    5.0043   -0.8318    3.5743 H   0  0  0  0  0  0
    3.7287   -2.5703    4.7925 H   0  0  0  0  0  0
    2.0161   -3.9196    1.0666 H   0  0  0  0  0  0
    2.2452   -4.3482    4.8273 H   0  0  0  0  0  0
    3.4191   -6.0397    3.4556 H   0  0  0  0  0  0
    2.1074   -6.0271    2.2789 H   0  0  0  0  0  0
    1.8165   -6.5979    3.9172 H   0  0  0  0  0  0
    0.2253   -3.1755    4.0251 H   0  0  0  0  0  0
   -0.0930   -4.8900    4.2549 H   0  0  0  0  0  0
    0.1246   -4.2465    2.6309 H   0  0  0  0  0  0
   -1.6248   -0.3417   -0.4526 H   0  0  0  0  0  0
   -2.3107   -2.5935    3.3557 H   0  0  0  0  0  0
   -1.6187   -1.8203    4.7772 H   0  0  0  0  0  0
   -4.6317   -3.3466    6.0095 H   0  0  0  0  0  0
   -2.8773   -3.3169    6.1908 H   0  0  0  0  0  0
   -3.6127   -4.0712    4.7650 H   0  0  0  0  0  0
    1.8214   -1.5830   -1.9563 H   0  0  0  0  0  0
  1  2  1  0  0  0
  1 42  1  0  0  0
  1 43  1  0  0  0
  1 44  1  0  0  0
  2 39  1  0  0  0
  2 21  1  0  0  0
  2  3  1  0  0  0
  3  4  1  0  0  0
  3 45  1  0  0  0
  3 46  1  0  0  0
  4  5  1  0  0  0
  4 47  1  0  0  0
  4 48  1  0  0  0
  5  6  1  0  0  0
  6  7  1  0  0  0
  6 49  1  0  0  0
  6 50  1  0  0  0
  7  8  1  0  0  0
  7 51  1  0  0  0
  7 52  1  0  0  0
  8  9  1  0  0  0
  8 53  1  0  0  0
  8 54  1  0  0  0
  9 10  1  0  0  0
  9 55  1  0  0  0
  9 56  1  0  0  0
 10 11  1  0  0  0
 10 57  1  0  0  0
 11 16  1  0  0  0
 11 12  2  0  0  0
 12 13  1  0  0  0
 12 58  1  0  0  0
 13 14  2  0  0  0
 13 36  1  0  0  0
 14 15  1  0  0  0
 14 59  1  0  0  0
 15 16  2  0  0  0
 15 17  1  0  0  0
 16 60  1  0  0  0
 17 18  2  0  0  0
 17 19  1  0  0  0
 19 20  1  0  0  0
 19 61  1  0  0  0
 20 40  1  0  0  0
 20 21  1  0  0  0
 20 22  1  0  0  0
 21 62  1  0  0  0
 21 63  1  0  0  0
 22 41  1  0  0  0
 22 23  1  0  0  0
 22 35  1  0  0  0
 23 24  1  0  0  0
 23 64  1  0  0  0
 23 65  1  0  0  0
 24 25  1  0  0  0
 24 66  1  0  0  0
 24 86  1  0  0  0
 25 26  1  0  0  0
 25 67  1  0  0  0
 25 68  1  0  0  0
 26 31  1  0  0  0
 26 27  2  0  0  0
 27 28  1  0  0  0
 27 69  1  0  0  0
 28 29  2  0  0  0
 28 70  1  0  0  0
 29 30  1  0  0  0
 29 71  1  0  0  0
 30 31  2  0  0  0
 30 32  1  0  0  0
 31 72  1  0  0  0
 32 33  1  0  0  0
 32 34  1  0  0  0
 32 73  1  0  0  0
 33 74  1  0  0  0
 33 75  1  0  0  0
 33 76  1  0  0  0
 34 77  1  0  0  0
 34 78  1  0  0  0
 34 79  1  0  0  0
 35 80  1  0  0  0
 36 37  1  0  0  0
 36 81  1  0  0  0
 36 82  1  0  0  0
 37 38  1  0  0  0
 38 83  1  0  0  0
 38 84  1  0  0  0
 38 85  1  0  0  0
M  CHG  1  24   1
M  END
> <s_m_source_file>
BACE_10.smi

> <i_m_source_file_index>
1

> <i_lp_mmshare_version>
42013

> <i_f3d_flags>
0

> <s_epik_input>
W05IXTFbQ0gyXVtDSDJdW0NIMl1bQ0gyXU9bQ0gyXVtDSDJdW0NAQEhdKFtDSDNdKVtDSDJdW0NASF0oW05IXUMoPU8pYyhbY0hdMilbY0hdYyhbY0hdYzEyKVtDSDJdT1tDSDNdKVtDQEhdKFtPSF0pW0NIMl1bTkhdW0NIMl1jM1tjSF1bY0hdW2NIXWMoW2NIXTMpW0NIXShbQ0gzXSlbQ0gzXQ==

> <s_epik_cmdline>
J2VwaWtfcHl0aG9uJywgJy1waCcsICc3LjAnLCAnLXRuJywgJzgnLCAnLW1hJywgJzIwMCcsICctaW1hZScsICc8aW5maWxlLm1hZT4nLCAnLW9tYWUnLCAnPG91dGZpbGUubWFlPic=

> <r_epik_Ionization_Penalty>
0.0171353

> <r_epik_Ionization_Penalty_Charging>
0.0167304

> <r_epik_Ionization_Penalty_Neutral>
0.000404869

> <r_epik_State_Penalty>
0.0132218

> <r_epik_Charging_Adjusted_Penalty>
0.0299522

> <i_epik_Tot_Q>
1

> <i_epik_Tot_abs_Q>
1

> <s_lp_Force_Field>
OPLS_2005

> <r_lp_Energy>
35.5902

> <b_lp_Chiralities_Consistent>
1

> <s_lp_Variant>
BACE_10.smi:1-1

$$$$
BACE_10.smi:1
                    3D
 Structure written by MMmdl.
 85 87  0  0  1  0            999 V2000
   -4.3340    2.7260    0.5356 C   0  0  0  0  0  0
   -2.8618    2.9071    0.1196 C   0  0  2  0  0  0
   -2.7232    4.0079   -0.9599 C   0  0  0  0  0  0
   -3.1689    5.4116   -0.5241 C   0  0  0  0  0  0
   -2.4615    5.7824    0.6472 O   0  0  0  0  0  0
   -2.5082    7.1730    0.9111 C   0  0  0  0  0  0
   -1.8863    7.4725    2.2830 C   0  0  0  0  0  0
   -0.4532    6.9360    2.4484 C   0  0  0  0  0  0
   -0.4095    5.5329    3.0780 C   0  0  0  0  0  0
    0.9503    5.0254    3.1934 N   0  0  0  0  0  0
    1.5888    4.3324    2.1535 C   0  0  0  0  0  0
    2.9235    3.9269    2.3582 C   0  0  0  0  0  0
    3.6292    3.2256    1.3599 C   0  0  0  0  0  0
    2.9810    2.9022    0.1499 C   0  0  0  0  0  0
    1.6402    3.2825   -0.0634 C   0  0  0  0  0  0
    0.9563    4.0202    0.9274 C   0  0  0  0  0  0
    0.9734    2.9395   -1.3623 C   0  0  0  0  0  0
    1.4325    3.3766   -2.4151 O   0  0  0  0  0  0
   -0.1035    2.1292   -1.3488 N   0  0  0  0  0  0
   -0.7228    1.4088   -0.2304 C   0  0  1  0  0  0
   -2.2674    1.5447   -0.3234 C   0  0  0  0  0  0
   -0.2680   -0.0779   -0.2316 C   0  0  1  0  0  0
    1.2618   -0.2813   -0.2095 C   0  0  0  0  0  0
    1.6179   -1.6727   -0.4795 N   0  0  0  0  0  0
    3.0561   -1.9295   -0.4608 C   0  0  0  0  0  0
    3.6448   -1.9092    0.9385 C   0  0  0  0  0  0
    4.6767   -1.0039    1.2590 C   0  0  0  0  0  0
    5.2234   -0.9891    2.5562 C   0  0  0  0  0  0
    4.7401   -1.8757    3.5368 C   0  0  0  0  0  0
    3.7059   -2.7858    3.2267 C   0  0  0  0  0  0
    3.1640   -2.7979    1.9234 C   0  0  0  0  0  0
    3.1760   -3.7491    4.2813 C   0  0  0  0  0  0
    2.5557   -3.0024    5.4726 C   0  0  0  0  0  0
    4.2571   -4.7424    4.7348 C   0  0  0  0  0  0
   -0.7542   -0.6911    0.9477 O   0  0  0  0  0  0
    5.0681    2.8126    1.6164 C   0  0  0  0  0  0
    5.7491    2.4150    0.4363 O   0  0  0  0  0  0
    7.1037    2.0748    0.6744 C   0  0  0  0  0  0
   -2.3195    3.2237    1.0110 H   0  0  0  0  0  0
   -0.4138    1.8324    0.7234 H   0  0  0  0  0  0
   -0.6945   -0.5837   -1.0993 H   0  0  0  0  0  0
   -4.9536    2.4396   -0.3147 H   0  0  0  0  0  0
   -4.7490    3.6392    0.9609 H   0  0  0  0  0  0
   -4.4383    1.9532    1.2977 H   0  0  0  0  0  0
   -1.6865    4.1007   -1.2698 H   0  0  0  0  0  0
   -3.2762    3.7168   -1.8536 H   0  0  0  0  0  0
   -2.9540    6.1108   -1.3341 H   0  0  0  0  0  0
   -4.2429    5.4572   -0.3434 H   0  0  0  0  0  0
   -1.9683    7.7099    0.1297 H   0  0  0  0  0  0
   -3.5408    7.5253    0.8942 H   0  0  0  0  0  0
   -1.8734    8.5549    2.4143 H   0  0  0  0  0  0
   -2.5255    7.0853    3.0772 H   0  0  0  0  0  0
    0.0627    6.9454    1.4872 H   0  0  0  0  0  0
    0.1032    7.6161    3.0943 H   0  0  0  0  0  0
   -0.8251    5.5816    4.0847 H   0  0  0  0  0  0
   -1.0404    4.8286    2.5377 H   0  0  0  0  0  0
    1.4578    5.2093    4.0469 H   0  0  0  0  0  0
    3.4171    4.1608    3.2907 H   0  0  0  0  0  0
    3.5054    2.3512   -0.6176 H   0  0  0  0  0  0
   -0.0589    4.3290    0.7305 H   0  0  0  0  0  0
   -0.5189    1.9448   -2.2504 H   0  0  0  0  0  0
   -2.7082    0.7820    0.3178 H   0  0  0  0  0  0
   -2.6099    1.2940   -1.3283 H   0  0  0  0  0  0
    1.7331    0.3348   -0.9732 H   0  0  0  0  0  0
    1.6709    0.0487    0.7466 H   0  0  0  0  0  0
    1.2251   -1.9679   -1.3675 H   0  0  0  0  0  0
    3.2501   -2.9176   -0.8787 H   0  0  0  0  0  0
    3.5788   -1.2194   -1.1032 H   0  0  0  0  0  0
    5.0510   -0.3183    0.5129 H   0  0  0  0  0  0
    6.0146   -0.2971    2.8020 H   0  0  0  0  0  0
    5.1678   -1.8537    4.5283 H   0  0  0  0  0  0
    2.3726   -3.4896    1.6734 H   0  0  0  0  0  0
    2.3778   -4.3341    3.8225 H   0  0  0  0  0  0
    1.7546   -2.3398    5.1441 H   0  0  0  0  0  0
    3.2941   -2.3970    5.9986 H   0  0  0  0  0  0
    2.1294   -3.7009    6.1931 H   0  0  0  0  0  0
    4.6524   -5.3044    3.8880 H   0  0  0  0  0  0
    3.8525   -5.4625    5.4465 H   0  0  0  0  0  0
    5.0927   -4.2356    5.2180 H   0  0  0  0  0  0
   -0.4423   -1.5831    0.9672 H   0  0  0  0  0  0
    5.5927    3.6523    2.0751 H   0  0  0  0  0  0
    5.0684    1.9959    2.3391 H   0  0  0  0  0  0
    7.5717    1.7646   -0.2596 H   0  0  0  0  0  0
    7.1875    1.2495    1.3820 H   0  0  0  0  0  0
    7.6618    2.9272    1.0640 H   0  0  0  0  0  0
  1  2  1  0  0  0
  1 42  1  0  0  0
  1 43  1  0  0  0
  1 44  1  0  0  0
  2 39  1  0  0  0
  2 21  1  0  0  0
  2  3  1  0  0  0
  3  4  1  0  0  0
  3 45  1  0  0  0
  3 46  1  0  0  0
  4  5  1  0  0  0
  4 47  1  0  0  0
  4 48  1  0  0  0
  5  6  1  0  0  0
  6  7  1  0  0  0
  6 49  1  0  0  0
  6 50  1  0  0  0
  7  8  1  0  0  0
  7 51  1  0  0  0
  7 52  1  0  0  0
  8  9  1  0  0  0
  8 53  1  0  0  0
  8 54  1  0  0  0
  9 10  1  0  0  0
  9 55  1  0  0  0
  9 56  1  0  0  0
 10 11  1  0  0  0
 10 57  1  0  0  0
 11 16  1  0  0  0
 11 12  2  0  0  0
 12 13  1  0  0  0
 12 58  1  0  0  0
 13 14  2  0  0  0
 13 36  1  0  0  0
 14 15  1  0  0  0
 14 59  1  0  0  0
 15 16  2  0  0  0
 15 17  1  0  0  0
 16 60  1  0  0  0
 17 18  2  0  0  0
 17 19  1  0  0  0
 19 20  1  0  0  0
 19 61  1  0  0  0
 20 40  1  0  0  0
 20 21  1  0  0  0
 20 22  1  0  0  0
 21 62  1  0  0  0
 21 63  1  0  0  0
 22 41  1  0  0  0
 22 23  1  0  0  0
 22 35  1  0  0  0
 23 24  1  0  0  0
 23 64  1  0  0  0
 23 65  1  0  0  0
 24 25  1  0  0  0
 24 66  1  0  0  0
 25 26  1  0  0  0
 25 67  1  0  0  0
 25 68  1  0  0  0
 26 31  1  0  0  0
 26 27  2  0  0  0
 27 28  1  0  0  0
 27 69  1  0  0  0
 28 29  2  0  0  0
 28 70  1  0  0  0
 29 30  1  0  0  0
 29 71  1  0  0  0
 30 31  2  0  0  0
 30 32  1  0  0  0
 31 72  1  0  0  0
 32 33  1  0  0  0
 32 34  1  0  0  0
 32 73  1  0  0  0
 33 74  1  0  0  0
 33 75  1  0  0  0
 33 76  1  0  0  0
 34 77  1  0  0  0
 34 78  1  0  0  0
 34 79  1  0  0  0
 35 80  1  0  0  0
 36 37  1  0  0  0
 36 81  1  0  0  0
 36 82  1  0  0  0
 37 38  1  0  0  0
 38 83  1  0  0  0
 38 84  1  0  0  0
 38 85  1  0  0  0
M  END
> <s_m_source_file>
BACE_10.smi

> <i_m_source_file_index>
1

> <i_lp_mmshare_version>
42013

> <i_f3d_flags>
0

> <s_epik_input>
W05IXTFbQ0gyXVtDSDJdW0NIMl1bQ0gyXU9bQ0gyXVtDSDJdW0NAQEhdKFtDSDNdKVtDSDJdW0NASF0oW05IXUMoPU8pYyhbY0hdMilbY0hdYyhbY0hdYzEyKVtDSDJdT1tDSDNdKVtDQEhdKFtPSF0pW0NIMl1bTkhdW0NIMl1jM1tjSF1bY0hdW2NIXWMoW2NIXTMpW0NIXShbQ0gzXSlbQ0gzXQ==

> <s_epik_cmdline>
J2VwaWtfcHl0aG9uJywgJy1waCcsICc3LjAnLCAnLXRuJywgJzgnLCAnLW1hJywgJzIwMCcsICctaW1hZScsICc8aW5maWxlLm1hZT4nLCAnLW9tYWUnLCAnPG91dGZpbGUubWFlPic=

> <r_epik_Ionization_Penalty>
2.12225

> <r_epik_Ionization_Penalty_Charging>
0

> <r_epik_Ionization_Penalty_Neutral>
2.12225

> <r_epik_State_Penalty>
2.2595

> <r_epik_Charging_Adjusted_Penalty>
2.2595

> <i_epik_Tot_Q>
0

> <i_epik_Tot_abs_Q>
0

> <s_lp_Force_Field>
OPLS_2005

> <r_lp_Energy>
40.6464

> <b_lp_Chiralities_Consistent>
1

> <s_lp_Variant>
BACE_10.smi:1-2

$$$$
