BACE_1.smi:1
                    3D
 Structure written by MMmdl.
 87 88  0  0  1  0            999 V2000
    5.4442    3.1031    0.4409 C   0  0  0  0  0  0
    3.9735    2.9736    0.8501 C   0  0  0  0  0  0
    3.2396    4.3262    0.8740 C   0  0  0  0  0  0
    1.7989    4.2409    1.4059 C   0  0  0  0  0  0
    0.9775    3.3637    0.5784 N   0  0  0  0  0  0
    0.0864    2.4716    1.0378 C   0  0  0  0  0  0
   -0.1920    2.3425    2.2303 O   0  0  0  0  0  0
   -0.5704    1.5611   -0.0114 C   0  0  2  0  0  0
   -2.1032    1.6199    0.1073 C   0  0  0  0  0  0
   -0.0594    0.1037    0.1075 C   0  0  0  0  0  0
    1.4656   -0.0714   -0.0992 C   0  0  1  0  0  0
    1.9814   -1.5231    0.0577 C   0  0  2  0  0  0
    1.6801   -2.1325    1.4528 C   0  0  0  0  0  0
    2.2428   -3.5576    1.6943 C   0  0  1  0  0  0
    2.3526   -3.8610    3.2056 C   0  0  0  0  0  0
    3.1151   -5.1531    3.5753 C   0  0  0  0  0  0
    4.5351   -5.2928    2.9867 C   0  0  0  0  0  0
    5.5000   -4.1570    3.3686 C   0  0  0  0  0  0
    6.9019   -4.3449    2.7522 C   0  0  0  0  0  0
    7.7814   -3.1880    2.9951 N   0  0  0  0  0  0
    8.1136   -2.2327    2.0832 C   0  0  0  0  0  0
    8.9118   -1.3276    2.3299 O   0  0  0  0  0  0
    7.5361   -2.3007    0.6963 C   0  0  0  0  0  0
    6.1483   -2.1858    0.4798 C   0  0  0  0  0  0
    5.6118   -2.2406   -0.8263 C   0  0  0  0  0  0
    6.4882   -2.3970   -1.9211 C   0  0  0  0  0  0
    7.8827   -2.4778   -1.7313 C   0  0  0  0  0  0
    8.4000   -2.4230   -0.4126 C   0  0  0  0  0  0
    8.6586   -2.6130   -2.8630 O   0  0  0  0  0  0
   10.0704   -2.6712   -2.7103 C   0  0  0  0  0  0
   10.7087   -2.8112   -4.0945 C   0  0  0  0  0  0
    4.1256   -2.2027   -1.0443 C   0  0  0  0  0  0
    3.6081   -2.7723   -2.0052 O   0  0  0  0  0  0
    3.4334   -1.5172   -0.1203 N   0  0  0  0  0  0
    8.4217   -3.1999    4.3199 C   0  0  0  0  0  0
    9.8542   -3.7552    4.2653 C   0  0  0  0  0  0
    1.4175   -4.6187    0.9456 C   0  0  0  0  0  0
    1.7633    0.3653   -1.4135 O   0  0  0  0  0  0
   -0.3153    1.9419   -1.0018 H   0  0  0  0  0  0
    2.0060    0.5587    0.6065 H   0  0  0  0  0  0
    1.5029   -2.1429   -0.7021 H   0  0  0  0  0  0
    3.2553   -3.5955    1.3020 H   0  0  0  0  0  0
    5.9309    2.1275    0.4320 H   0  0  0  0  0  0
    5.9920    3.7422    1.1339 H   0  0  0  0  0  0
    5.5386    3.5307   -0.5576 H   0  0  0  0  0  0
    3.4784    2.2976    0.1536 H   0  0  0  0  0  0
    3.9145    2.5053    1.8333 H   0  0  0  0  0  0
    3.7975    5.0252    1.4982 H   0  0  0  0  0  0
    3.2339    4.7544   -0.1292 H   0  0  0  0  0  0
    1.8186    3.9030    2.4434 H   0  0  0  0  0  0
    1.3466    5.2330    1.4104 H   0  0  0  0  0  0
    1.1388    3.3979   -0.4179 H   0  0  0  0  0  0
   -2.4676    2.6458    0.0409 H   0  0  0  0  0  0
   -2.4505    1.2020    1.0531 H   0  0  0  0  0  0
   -2.5768    1.0543   -0.6953 H   0  0  0  0  0  0
   -0.3449   -0.2680    1.0908 H   0  0  0  0  0  0
   -0.5895   -0.5237   -0.6105 H   0  0  0  0  0  0
    2.0891   -1.4540    2.2028 H   0  0  0  0  0  0
    0.6067   -2.1592    1.6366 H   0  0  0  0  0  0
    2.8448   -3.0253    3.7039 H   0  0  0  0  0  0
    1.3522   -3.9036    3.6377 H   0  0  0  0  0  0
    3.1793   -5.2156    4.6620 H   0  0  0  0  0  0
    2.5251   -6.0177    3.2715 H   0  0  0  0  0  0
    4.9565   -6.2393    3.3268 H   0  0  0  0  0  0
    4.4783   -5.3769    1.9013 H   0  0  0  0  0  0
    5.0822   -3.2020    3.0609 H   0  0  0  0  0  0
    5.5777   -4.1067    4.4548 H   0  0  0  0  0  0
    7.3640   -5.2365    3.1789 H   0  0  0  0  0  0
    6.8172   -4.5677    1.6888 H   0  0  0  0  0  0
    5.4941   -2.0543    1.3262 H   0  0  0  0  0  0
    6.0931   -2.4520   -2.9256 H   0  0  0  0  0  0
    9.4622   -2.4848   -0.2288 H   0  0  0  0  0  0
   10.4375   -1.7635   -2.2290 H   0  0  0  0  0  0
   10.3523   -3.5247   -2.0918 H   0  0  0  0  0  0
   11.7959   -2.8489   -4.0204 H   0  0  0  0  0  0
   10.4461   -1.9685   -4.7344 H   0  0  0  0  0  0
   10.3751   -3.7244   -4.5880 H   0  0  0  0  0  0
    3.9655   -1.0450    0.5962 H   0  0  0  0  0  0
    8.4286   -2.1937    4.7424 H   0  0  0  0  0  0
    7.8377   -3.7990    5.0194 H   0  0  0  0  0  0
   10.2940   -3.7836    5.2621 H   0  0  0  0  0  0
   10.5031   -3.1425    3.6392 H   0  0  0  0  0  0
    9.8683   -4.7705    3.8684 H   0  0  0  0  0  0
    0.3927   -4.6588    1.3158 H   0  0  0  0  0  0
    1.8509   -5.6125    1.0544 H   0  0  0  0  0  0
    1.3771   -4.4078   -0.1228 H   0  0  0  0  0  0
    1.3494   -0.2230   -2.0267 H   0  0  0  0  0  0
  1  2  1  0  0  0
  1 43  1  0  0  0
  1 44  1  0  0  0
  1 45  1  0  0  0
  2  3  1  0  0  0
  2 46  1  0  0  0
  2 47  1  0  0  0
  3  4  1  0  0  0
  3 48  1  0  0  0
  3 49  1  0  0  0
  4  5  1  0  0  0
  4 50  1  0  0  0
  4 51  1  0  0  0
  5  6  1  0  0  0
  5 52  1  0  0  0
  6  7  2  0  0  0
  6  8  1  0  0  0
  8 39  1  0  0  0
  8  9  1  0  0  0
  8 10  1  0  0  0
  9 53  1  0  0  0
  9 54  1  0  0  0
  9 55  1  0  0  0
 10 11  1  0  0  0
 10 56  1  0  0  0
 10 57  1  0  0  0
 11 40  1  0  0  0
 11 12  1  0  0  0
 11 38  1  0  0  0
 12 41  1  0  0  0
 12 34  1  0  0  0
 12 13  1  0  0  0
 13 14  1  0  0  0
 13 58  1  0  0  0
 13 59  1  0  0  0
 14 42  1  0  0  0
 14 15  1  0  0  0
 14 37  1  0  0  0
 15 16  1  0  0  0
 15 60  1  0  0  0
 15 61  1  0  0  0
 16 17  1  0  0  0
 16 62  1  0  0  0
 16 63  1  0  0  0
 17 18  1  0  0  0
 17 64  1  0  0  0
 17 65  1  0  0  0
 18 19  1  0  0  0
 18 66  1  0  0  0
 18 67  1  0  0  0
 19 20  1  0  0  0
 19 68  1  0  0  0
 19 69  1  0  0  0
 20 21  1  0  0  0
 20 35  1  0  0  0
 21 22  2  0  0  0
 21 23  1  0  0  0
 23 28  1  0  0  0
 23 24  2  0  0  0
 24 25  1  0  0  0
 24 70  1  0  0  0
 25 26  2  0  0  0
 25 32  1  0  0  0
 26 27  1  0  0  0
 26 71  1  0  0  0
 27 28  2  0  0  0
 27 29  1  0  0  0
 28 72  1  0  0  0
 29 30  1  0  0  0
 30 31  1  0  0  0
 30 73  1  0  0  0
 30 74  1  0  0  0
 31 75  1  0  0  0
 31 76  1  0  0  0
 31 77  1  0  0  0
 32 33  2  0  0  0
 32 34  1  0  0  0
 34 78  1  0  0  0
 35 36  1  0  0  0
 35 79  1  0  0  0
 35 80  1  0  0  0
 36 81  1  0  0  0
 36 82  1  0  0  0
 36 83  1  0  0  0
 37 84  1  0  0  0
 37 85  1  0  0  0
 37 86  1  0  0  0
 38 87  1  0  0  0
M  END
> <s_m_source_file>
BACE_1.smi

> <i_m_source_file_index>
1

> <i_lp_mmshare_version>
42013

> <i_f3d_flags>
0

> <s_epik_input>
W0NIM11bQ0gyXVtDSDJdW0NIMl1bTkhdQyg9TylbQ0BIXShbQ0gzXSlbQ0gyXVtDQEhdKFtPSF0pW0NAQEhdKFtOSF1DKD1PKWMoW2NIXWMxMilbY0hdYyhbY0hdMilPW0NIMl1bQ0gzXSlbQ0gyXVtDQEhdKFtDSDNdKVtDSDJdW0NIMl1bQ0gyXVtDSDJdW0NIMl1OKEMxPU8pW0NIMl1bQ0gzXQ==

> <s_epik_cmdline>
J2VwaWtfcHl0aG9uJywgJy1waCcsICc3LjAnLCAnLXRuJywgJzgnLCAnLW1hJywgJzIwMCcsICctaW1hZScsICc8aW5maWxlLm1hZT4nLCAnLW9tYWUnLCAnPG91dGZpbGUubWFlPic=

> <r_lp_tautomer_probability>
1

> <r_epik_Ionization_Penalty>
4.8396e-07

> <r_epik_Ionization_Penalty_Charging>
0

> <r_epik_Ionization_Penalty_Neutral>
4.8396e-07

> <r_epik_State_Penalty>
-0

> <r_epik_Charging_Adjusted_Penalty>
0

> <i_epik_Tot_Q>
0

> <i_epik_Tot_abs_Q>
0

> <s_lp_Force_Field>
OPLS_2005

> <r_lp_Energy>
40.9193

> <b_lp_Chiralities_Consistent>
1

> <s_lp_Variant>
BACE_1.smi:1-1

$$$$
