BACE_17.smi:1
                    3D
 Structure written by MMmdl.
 62 64  0  0  1  0            999 V2000
    0.3679    7.9970   -0.3346 C   0  0  0  0  0  0
    0.0348    8.0725    1.0919 N   0  0  0  0  0  0
    0.4526    9.3100    1.7538 C   0  0  0  0  0  0
   -0.5182    7.0622    1.8075 C   0  0  0  0  0  0
   -0.6006    7.0824    3.0364 O   0  0  0  0  0  0
   -1.0458    5.8636    1.0693 C   0  0  0  0  0  0
   -2.0032    6.0102    0.0388 C   0  0  0  0  0  0
   -0.6157    4.5701    1.4415 C   0  0  0  0  0  0
   -1.1059    3.4334    0.7647 C   0  0  0  0  0  0
   -2.0800    3.5959   -0.2410 C   0  0  0  0  0  0
   -2.5122    4.8743   -0.6297 C   0  0  0  0  0  0
   -0.6052    2.0625    1.1023 C   0  0  0  0  0  0
   -0.4179    1.7150    2.2675 O   0  0  0  0  0  0
   -0.3511    1.2960    0.0287 N   0  0  0  0  0  0
    0.0450   -0.1114    0.0144 C   0  0  2  0  0  0
    1.5944   -0.2496    0.0017 C   0  0  1  0  0  0
    2.1676    0.3514    1.1475 O   0  0  0  0  0  0
    2.1264   -1.6994   -0.0439 C   0  0  0  0  0  0
    1.5217   -2.5153    0.9396 O   0  0  0  0  0  0
   -0.6492   -0.7951   -1.1949 C   0  0  0  0  0  0
   -0.3227   -0.1949   -2.5618 C   0  0  0  0  0  0
   -1.0096    0.9489   -3.0296 C   0  0  0  0  0  0
   -0.7009    1.5186   -4.2918 C   0  0  0  0  0  0
    0.2849    0.9039   -5.0895 C   0  0  0  0  0  0
    0.9576   -0.2476   -4.6414 C   0  0  0  0  0  0
    0.6555   -0.7949   -3.3816 C   0  0  0  0  0  0
   -1.3018    2.6492   -4.8062 O   0  0  0  0  0  0
   -2.1930    3.3798   -3.9744 C   0  0  0  0  0  0
   -2.5730    4.6934   -4.6777 C   0  0  0  0  0  0
   -3.6676    5.5221   -3.9722 C   0  0  0  0  0  0
   -3.2943    6.0237   -2.5671 C   0  0  0  0  0  0
   -3.4196    4.9388   -1.6583 O   0  0  0  0  0  0
   -0.3397   -0.5865    0.9188 H   0  0  0  0  0  0
    1.9921    0.2871   -0.8605 H   0  0  0  0  0  0
    0.6678    6.9919   -0.6348 H   0  0  0  0  0  0
    1.2026    8.6537   -0.5830 H   0  0  0  0  0  0
   -0.4845    8.3011   -0.9426 H   0  0  0  0  0  0
   -0.2714    9.6289    2.5055 H   0  0  0  0  0  0
    0.5533   10.1325    1.0445 H   0  0  0  0  0  0
    1.4155    9.1686    2.2458 H   0  0  0  0  0  0
   -2.3540    6.9956   -0.2305 H   0  0  0  0  0  0
    0.1150    4.4529    2.2298 H   0  0  0  0  0  0
   -2.4873    2.7347   -0.7491 H   0  0  0  0  0  0
   -0.5070    1.7156   -0.8765 H   0  0  0  0  0  0
    1.8398    1.2348    1.2182 H   0  0  0  0  0  0
    1.9344   -2.1517   -1.0146 H   0  0  0  0  0  0
    3.2086   -1.7173    0.0909 H   0  0  0  0  0  0
    1.9073   -3.3768    0.8941 H   0  0  0  0  0  0
   -0.4196   -1.8605   -1.2082 H   0  0  0  0  0  0
   -1.7303   -0.7423   -1.0593 H   0  0  0  0  0  0
   -1.7729    1.3790   -2.4010 H   0  0  0  0  0  0
    0.5290    1.3209   -6.0556 H   0  0  0  0  0  0
    1.7077   -0.7109   -5.2654 H   0  0  0  0  0  0
    1.1765   -1.6813   -3.0547 H   0  0  0  0  0  0
   -3.0848    2.7866   -3.7662 H   0  0  0  0  0  0
   -1.6968    3.6065   -3.0321 H   0  0  0  0  0  0
   -1.6781    5.3039   -4.8037 H   0  0  0  0  0  0
   -2.9203    4.4595   -5.6846 H   0  0  0  0  0  0
   -3.8801    6.3902   -4.5969 H   0  0  0  0  0  0
   -4.5978    4.9544   -3.9273 H   0  0  0  0  0  0
   -2.2878    6.4463   -2.5880 H   0  0  0  0  0  0
   -3.9760    6.8157   -2.2549 H   0  0  0  0  0  0
  1  2  1  0  0  0
  1 35  1  0  0  0
  1 36  1  0  0  0
  1 37  1  0  0  0
  2  3  1  0  0  0
  2  4  1  0  0  0
  3 38  1  0  0  0
  3 39  1  0  0  0
  3 40  1  0  0  0
  4  5  2  0  0  0
  4  6  1  0  0  0
  6  7  1  0  0  0
  6  8  2  0  0  0
  7 11  2  0  0  0
  7 41  1  0  0  0
  8  9  1  0  0  0
  8 42  1  0  0  0
  9 10  2  0  0  0
  9 12  1  0  0  0
 10 11  1  0  0  0
 10 43  1  0  0  0
 11 32  1  0  0  0
 12 13  2  0  0  0
 12 14  1  0  0  0
 14 15  1  0  0  0
 14 44  1  0  0  0
 15 33  1  0  0  0
 15 16  1  0  0  0
 15 20  1  0  0  0
 16 34  1  0  0  0
 16 17  1  0  0  0
 16 18  1  0  0  0
 17 45  1  0  0  0
 18 19  1  0  0  0
 18 46  1  0  0  0
 18 47  1  0  0  0
 19 48  1  0  0  0
 20 21  1  0  0  0
 20 49  1  0  0  0
 20 50  1  0  0  0
 21 26  1  0  0  0
 21 22  2  0  0  0
 22 23  1  0  0  0
 22 51  1  0  0  0
 23 24  2  0  0  0
 23 27  1  0  0  0
 24 25  1  0  0  0
 24 52  1  0  0  0
 25 26  2  0  0  0
 25 53  1  0  0  0
 26 54  1  0  0  0
 27 28  1  0  0  0
 28 29  1  0  0  0
 28 55  1  0  0  0
 28 56  1  0  0  0
 29 30  1  0  0  0
 29 57  1  0  0  0
 29 58  1  0  0  0
 30 31  1  0  0  0
 30 59  1  0  0  0
 30 60  1  0  0  0
 31 32  1  0  0  0
 31 61  1  0  0  0
 31 62  1  0  0  0
M  END
> <s_m_source_file>
BACE_17.smi

> <i_m_source_file_index>
1

> <i_lp_mmshare_version>
42013

> <i_f3d_flags>
0

> <s_epik_input>
W0NIM11OKFtDSDNdKUMoPU8pYyhbY0hdYzEyKVtjSF1jKFtjSF0xKU9bQ0gyXVtDSDJdW0NIMl1bQ0gyXU9jM1tjSF1jKFtjSF1bY0hdW2NIXTMpW0NIMl1bQ0BIXShbTkhdQzI9TylbQ0BASF0oW09IXSlbQ0gyXVtPSF0=

> <s_epik_cmdline>
J2VwaWtfcHl0aG9uJywgJy1waCcsICc3LjAnLCAnLXRuJywgJzgnLCAnLW1hJywgJzIwMCcsICctaW1hZScsICc8aW5maWxlLm1hZT4nLCAnLW9tYWUnLCAnPG91dGZpbGUubWFlPic=

> <r_lp_tautomer_probability>
1

> <r_epik_Ionization_Penalty>
4.9027e-07

> <r_epik_Ionization_Penalty_Charging>
0

> <r_epik_Ionization_Penalty_Neutral>
4.9027e-07

> <r_epik_State_Penalty>
-0

> <r_epik_Charging_Adjusted_Penalty>
0

> <i_epik_Tot_Q>
0

> <i_epik_Tot_abs_Q>
0

> <s_lp_Force_Field>
OPLS_2005

> <r_lp_Energy>
47.913

> <b_lp_Chiralities_Consistent>
1

> <s_lp_Variant>
BACE_17.smi:1-1

$$$$
