BACE_7.smi:1
                    3D
 Structure written by MMmdl.
 99103  0  0  1  0            999 V2000
    0.5761    3.7524    0.0615 C   0  0  0  0  0  0
   -0.0603    3.2801    1.3803 C   0  0  2  0  0  0
    0.0698    4.3606    2.4828 C   0  0  0  0  0  0
   -1.0858    5.3831    2.4716 C   0  0  0  0  0  0
   -2.3633    4.8352    3.1343 C   0  0  0  0  0  0
   -3.6281    5.6605    2.8414 C   0  0  0  0  0  0
   -4.9230    5.0660    3.4476 C   0  0  0  0  0  0
   -5.2522    3.7218    2.9314 N   0  0  0  0  0  0
   -5.6580    3.5803    1.6421 C   0  0  0  0  0  0
   -6.1167    4.5029    0.9681 O   0  0  0  0  0  0
   -5.3704    2.2712    0.9685 C   0  0  0  0  0  0
   -6.4015    1.4895    0.4105 C   0  0  0  0  0  0
   -6.0964    0.2738   -0.2445 C   0  0  0  0  0  0
   -4.7492   -0.1468   -0.3493 C   0  0  0  0  0  0
   -3.7094    0.6357    0.1979 C   0  0  0  0  0  0
   -4.0359    1.8474    0.8419 C   0  0  0  0  0  0
   -2.2696    0.2357    0.0385 C   0  0  0  0  0  0
   -1.8849   -0.4047   -0.9397 O   0  0  0  0  0  0
   -1.4616    0.6404    1.0325 N   0  0  0  0  0  0
   -0.0025    0.6934    0.9988 C   0  0  1  0  0  0
    0.4973    1.9054    1.8320 C   0  0  0  0  0  0
    0.6053   -0.6749    1.4007 C   0  0  1  0  0  0
    2.0646   -0.8252    0.9346 C   0  0  0  0  0  0
    2.5526   -2.2066    1.1340 N   0  3  0  0  0  0
    3.9317   -2.4553    0.6648 C   0  0  0  0  0  0
    4.0033   -2.5377   -0.8493 C   0  0  0  0  0  0
    3.7009   -3.7496   -1.5040 C   0  0  0  0  0  0
    3.7510   -3.8245   -2.9087 C   0  0  0  0  0  0
    4.1008   -2.6886   -3.6634 C   0  0  0  0  0  0
    4.4091   -1.4710   -3.0178 C   0  0  0  0  0  0
    4.3634   -1.4044   -1.6085 C   0  0  0  0  0  0
    4.7775   -0.2335   -3.8267 C   0  0  0  0  0  0
    3.5947    0.2535   -4.6783 C   0  0  0  0  0  0
    6.0364   -0.4612   -4.6789 C   0  0  0  0  0  0
    0.5681   -0.8358    2.8064 O   0  0  0  0  0  0
   -7.1695   -0.5327   -0.8192 C   0  0  0  0  0  0
   -8.4860   -0.3279   -0.7568 N   0  0  0  0  0  0
   -9.0539   -1.3767   -1.4646 C   0  0  0  0  0  0
   -8.0405   -2.1738   -1.9264 C   0  0  0  0  0  0
   -6.8416   -1.6516   -1.5241 O   0  0  0  0  0  0
   -5.3266    2.6116    3.9150 C   0  0  2  0  0  0
   -6.5896    2.7475    4.7874 C   0  0  0  0  0  0
   -4.0431    2.3663    4.7122 C   0  0  0  0  0  0
   -3.7844    3.0309    5.9339 C   0  0  0  0  0  0
   -2.5889    2.7911    6.6386 C   0  0  0  0  0  0
   -1.6439    1.8776    6.1360 C   0  0  0  0  0  0
   -1.8995    1.1984    4.9311 C   0  0  0  0  0  0
   -3.0932    1.4405    4.2256 C   0  0  0  0  0  0
   -1.1220    3.1601    1.1833 H   0  0  0  0  0  0
    0.2793    0.8746   -0.0394 H   0  0  0  0  0  0
    0.0197   -1.4770    0.9486 H   0  0  0  0  0  0
   -5.4894    1.6703    3.3906 H   0  0  0  0  0  0
    1.6568    3.8600    0.1579 H   0  0  0  0  0  0
    0.1744    4.7181   -0.2463 H   0  0  0  0  0  0
    0.3825    3.0528   -0.7513 H   0  0  0  0  0  0
    0.1077    3.9042    3.4727 H   0  0  0  0  0  0
    1.0218    4.8807    2.3697 H   0  0  0  0  0  0
   -0.7785    6.2852    3.0015 H   0  0  0  0  0  0
   -1.2922    5.6916    1.4464 H   0  0  0  0  0  0
   -2.5265    3.8162    2.7982 H   0  0  0  0  0  0
   -2.2078    4.7720    4.2115 H   0  0  0  0  0  0
   -3.4891    6.6701    3.2293 H   0  0  0  0  0  0
   -3.7457    5.7711    1.7628 H   0  0  0  0  0  0
   -4.8365    5.0625    4.5315 H   0  0  0  0  0  0
   -5.7568    5.7395    3.2426 H   0  0  0  0  0  0
   -7.4262    1.8238    0.4888 H   0  0  0  0  0  0
   -4.5083   -1.0694   -0.8579 H   0  0  0  0  0  0
   -3.2562    2.4786    1.2345 H   0  0  0  0  0  0
   -1.9003    1.1074    1.8131 H   0  0  0  0  0  0
    1.5868    1.9430    1.8295 H   0  0  0  0  0  0
    0.2103    1.7420    2.8707 H   0  0  0  0  0  0
    2.1252   -0.5829   -0.1265 H   0  0  0  0  0  0
    2.7179   -0.1271    1.4595 H   0  0  0  0  0  0
    2.5148   -2.4024    2.1243 H   0  0  0  0  0  0
    4.6047   -1.6840    1.0421 H   0  0  0  0  0  0
    4.2741   -3.4013    1.0852 H   0  0  0  0  0  0
    3.4267   -4.6242   -0.9322 H   0  0  0  0  0  0
    3.5179   -4.7530   -3.4087 H   0  0  0  0  0  0
    4.1294   -2.7572   -4.7410 H   0  0  0  0  0  0
    4.5944   -0.4768   -1.1051 H   0  0  0  0  0  0
    5.0123    0.5644   -3.1209 H   0  0  0  0  0  0
    2.7251    0.4664   -4.0553 H   0  0  0  0  0  0
    3.2997   -0.4898   -5.4193 H   0  0  0  0  0  0
    3.8477    1.1693   -5.2132 H   0  0  0  0  0  0
    6.8809   -0.7610   -4.0575 H   0  0  0  0  0  0
    6.3230    0.4505   -5.2036 H   0  0  0  0  0  0
    5.8826   -1.2367   -5.4295 H   0  0  0  0  0  0
    1.0107   -0.1026    3.2068 H   0  0  0  0  0  0
  -10.1232   -1.4722   -1.5833 H   0  0  0  0  0  0
   -8.0053   -3.0807   -2.5119 H   0  0  0  0  0  0
   -6.7028    1.8863    5.4466 H   0  0  0  0  0  0
   -7.4853    2.8032    4.1681 H   0  0  0  0  0  0
   -6.5709    3.6418    5.4096 H   0  0  0  0  0  0
   -4.4936    3.7345    6.3420 H   0  0  0  0  0  0
   -2.3977    3.3083    7.5673 H   0  0  0  0  0  0
   -0.7284    1.6930    6.6783 H   0  0  0  0  0  0
   -1.1817    0.4884    4.5491 H   0  0  0  0  0  0
   -3.2770    0.9053    3.3069 H   0  0  0  0  0  0
    1.9315   -2.8452    0.6579 H   0  0  0  0  0  0
  1  2  1  0  0  0
  1 53  1  0  0  0
  1 54  1  0  0  0
  1 55  1  0  0  0
  2 49  1  0  0  0
  2 21  1  0  0  0
  2  3  1  0  0  0
  3  4  1  0  0  0
  3 56  1  0  0  0
  3 57  1  0  0  0
  4  5  1  0  0  0
  4 58  1  0  0  0
  4 59  1  0  0  0
  5  6  1  0  0  0
  5 60  1  0  0  0
  5 61  1  0  0  0
  6  7  1  0  0  0
  6 62  1  0  0  0
  6 63  1  0  0  0
  7  8  1  0  0  0
  7 64  1  0  0  0
  7 65  1  0  0  0
  8  9  1  0  0  0
  8 41  1  0  0  0
  9 10  2  0  0  0
  9 11  1  0  0  0
 11 16  1  0  0  0
 11 12  2  0  0  0
 12 13  1  0  0  0
 12 66  1  0  0  0
 13 14  2  0  0  0
 13 36  1  0  0  0
 14 15  1  0  0  0
 14 67  1  0  0  0
 15 16  2  0  0  0
 15 17  1  0  0  0
 16 68  1  0  0  0
 17 18  2  0  0  0
 17 19  1  0  0  0
 19 20  1  0  0  0
 19 69  1  0  0  0
 20 50  1  0  0  0
 20 21  1  0  0  0
 20 22  1  0  0  0
 21 70  1  0  0  0
 21 71  1  0  0  0
 22 51  1  0  0  0
 22 23  1  0  0  0
 22 35  1  0  0  0
 23 24  1  0  0  0
 23 72  1  0  0  0
 23 73  1  0  0  0
 24 25  1  0  0  0
 24 74  1  0  0  0
 24 99  1  0  0  0
 25 26  1  0  0  0
 25 75  1  0  0  0
 25 76  1  0  0  0
 26 31  1  0  0  0
 26 27  2  0  0  0
 27 28  1  0  0  0
 27 77  1  0  0  0
 28 29  2  0  0  0
 28 78  1  0  0  0
 29 30  1  0  0  0
 29 79  1  0  0  0
 30 31  2  0  0  0
 30 32  1  0  0  0
 31 80  1  0  0  0
 32 33  1  0  0  0
 32 34  1  0  0  0
 32 81  1  0  0  0
 33 82  1  0  0  0
 33 83  1  0  0  0
 33 84  1  0  0  0
 34 85  1  0  0  0
 34 86  1  0  0  0
 34 87  1  0  0  0
 35 88  1  0  0  0
 36 40  1  0  0  0
 36 37  2  0  0  0
 37 38  1  0  0  0
 38 39  2  0  0  0
 38 89  1  0  0  0
 39 40  1  0  0  0
 39 90  1  0  0  0
 41 52  1  0  0  0
 41 42  1  0  0  0
 41 43  1  0  0  0
 42 91  1  0  0  0
 42 92  1  0  0  0
 42 93  1  0  0  0
 43 48  1  0  0  0
 43 44  2  0  0  0
 44 45  1  0  0  0
 44 94  1  0  0  0
 45 46  2  0  0  0
 45 95  1  0  0  0
 46 47  1  0  0  0
 46 96  1  0  0  0
 47 48  2  0  0  0
 47 97  1  0  0  0
 48 98  1  0  0  0
M  CHG  1  24   1
M  END
> <s_m_source_file>
BACE_7.smi

> <i_m_source_file_index>
1

> <i_lp_mmshare_version>
42013

> <i_f3d_flags>
0

> <s_epik_input>
W2NIXTFbY0hdW2NIXVtjSF1bY0hdYzFbQ0BASF0oW0NIM10pTihDMj1PKVtDSDJdW0NIMl1bQ0gyXVtDSDJdW0NIMl1bQ0BASF0oW0NIM10pW0NIMl1bQ0BIXShbTkhdQyg9TyljKFtjSF0zKVtjSF1jKFtjSF1jMjMpLWM0bltjSF1bY0hdbzQpW0NASF0oW09IXSlbQ0gyXVtOSF1bQ0gyXWM1W2NIXVtjSF1bY0hdYyhbY0hdNSlbQ0hdKFtDSDNdKVtDSDNd

> <s_epik_cmdline>
J2VwaWtfcHl0aG9uJywgJy1waCcsICc3LjAnLCAnLXRuJywgJzgnLCAnLW1hJywgJzIwMCcsICctaW1hZScsICc8aW5maWxlLm1hZT4nLCAnLW9tYWUnLCAnPG91dGZpbGUubWFlPic=

> <r_epik_Ionization_Penalty>
0.0165162

> <r_epik_Ionization_Penalty_Charging>
0.0165153

> <r_epik_Ionization_Penalty_Neutral>
9.01175e-07

> <r_epik_State_Penalty>
0.0130399

> <r_epik_Charging_Adjusted_Penalty>
0.0295552

> <i_epik_Tot_Q>
1

> <i_epik_Tot_abs_Q>
1

> <s_lp_Force_Field>
OPLS_2005

> <r_lp_Energy>
54.1327

> <b_lp_Chiralities_Consistent>
1

> <s_lp_Variant>
BACE_7.smi:1-1

$$$$
BACE_7.smi:1
                    3D
 Structure written by MMmdl.
 98102  0  0  1  0            999 V2000
    0.0420    4.4734    0.2528 C   0  0  0  0  0  0
   -0.4687    3.7759    1.5256 C   0  0  2  0  0  0
   -0.3557    4.7085    2.7572 C   0  0  0  0  0  0
   -1.5899    5.6148    2.9488 C   0  0  0  0  0  0
   -2.7705    4.8708    3.5999 C   0  0  0  0  0  0
   -4.1152    5.6114    3.5008 C   0  0  0  0  0  0
   -5.3119    4.8280    4.0941 C   0  0  0  0  0  0
   -5.5640    3.5386    3.4191 N   0  0  0  0  0  0
   -6.0474    3.5306    2.1491 C   0  0  0  0  0  0
   -6.6300    4.4866    1.6370 O   0  0  0  0  0  0
   -5.6988    2.3541    1.2866 C   0  0  0  0  0  0
   -6.6978    1.5524    0.6991 C   0  0  0  0  0  0
   -6.3391    0.4638   -0.1295 C   0  0  0  0  0  0
   -4.9724    0.1931   -0.3784 C   0  0  0  0  0  0
   -3.9657    0.9990    0.1964 C   0  0  0  0  0  0
   -4.3460    2.0817    1.0164 C   0  0  0  0  0  0
   -2.5128    0.7646   -0.1090 C   0  0  0  0  0  0
   -2.1497    0.3094   -1.1933 O   0  0  0  0  0  0
   -1.6731    1.0985    0.8846 N   0  0  0  0  0  0
   -0.2262    1.2770    0.7880 C   0  0  1  0  0  0
    0.2247    2.4073    1.7538 C   0  0  0  0  0  0
    0.5055   -0.0743    0.9862 C   0  0  1  0  0  0
    2.0038    0.0189    0.6442 C   0  0  0  0  0  0
    2.5581   -1.2928    0.3153 N   0  0  0  0  0  0
    3.9976   -1.2882    0.0653 C   0  0  0  0  0  0
    4.3704   -0.6342   -1.2519 C   0  0  0  0  0  0
    4.8933    0.6749   -1.2680 C   0  0  0  0  0  0
    5.2330    1.2833   -2.4908 C   0  0  0  0  0  0
    5.0549    0.5840   -3.6997 C   0  0  0  0  0  0
    4.5325   -0.7283   -3.6944 C   0  0  0  0  0  0
    4.1891   -1.3309   -2.4647 C   0  0  0  0  0  0
    4.3449   -1.4947   -4.9979 C   0  0  0  0  0  0
    5.6895   -1.7678   -5.6896 C   0  0  0  0  0  0
    3.3558   -0.7882   -5.9381 C   0  0  0  0  0  0
    0.3942   -0.4855    2.3357 O   0  0  0  0  0  0
   -7.3784   -0.3710   -0.7262 C   0  0  0  0  0  0
   -8.7025   -0.2570   -0.6125 N   0  0  0  0  0  0
   -9.2257   -1.2968   -1.3665 C   0  0  0  0  0  0
   -8.1797   -1.9976   -1.9052 C   0  0  0  0  0  0
   -7.0039   -1.4222   -1.5082 O   0  0  0  0  0  0
   -5.4787    2.3075    4.2451 C   0  0  2  0  0  0
   -6.6996    2.2017    5.1793 C   0  0  0  0  0  0
   -4.1357    2.0924    4.9470 C   0  0  0  0  0  0
   -3.8807    2.5979    6.2435 C   0  0  0  0  0  0
   -2.6299    2.3930    6.8572 C   0  0  0  0  0  0
   -1.6244    1.6721    6.1870 C   0  0  0  0  0  0
   -1.8741    1.1502    4.9048 C   0  0  0  0  0  0
   -3.1231    1.3579    4.2903 C   0  0  0  0  0  0
   -1.5278    3.5902    1.3701 H   0  0  0  0  0  0
   -0.0104    1.6088   -0.2286 H   0  0  0  0  0  0
    0.0367   -0.8268    0.3498 H   0  0  0  0  0  0
   -5.5779    1.4309    3.6053 H   0  0  0  0  0  0
    1.1145    4.6624    0.3069 H   0  0  0  0  0  0
   -0.4554    5.4316    0.1017 H   0  0  0  0  0  0
   -0.1450    3.8720   -0.6364 H   0  0  0  0  0  0
   -0.2148    4.1301    3.6711 H   0  0  0  0  0  0
    0.5408    5.3228    2.6644 H   0  0  0  0  0  0
   -1.3239    6.4643    3.5784 H   0  0  0  0  0  0
   -1.8890    6.0336    1.9874 H   0  0  0  0  0  0
   -2.8743    3.8970    3.1320 H   0  0  0  0  0  0
   -2.5359    4.6745    4.6462 H   0  0  0  0  0  0
   -4.0304    6.5685    4.0162 H   0  0  0  0  0  0
   -4.3175    5.8538    2.4571 H   0  0  0  0  0  0
   -5.1512    4.6907    5.1608 H   0  0  0  0  0  0
   -6.2103    5.4441    4.0316 H   0  0  0  0  0  0
   -7.7386    1.7716    0.8911 H   0  0  0  0  0  0
   -4.6911   -0.6310   -1.0183 H   0  0  0  0  0  0
   -3.5955    2.7306    1.4363 H   0  0  0  0  0  0
   -2.0934    1.4035    1.7502 H   0  0  0  0  0  0
    1.3052    2.5417    1.7001 H   0  0  0  0  0  0
    0.0203    2.0806    2.7731 H   0  0  0  0  0  0
    2.1336    0.6800   -0.2131 H   0  0  0  0  0  0
    2.5540    0.4753    1.4684 H   0  0  0  0  0  0
    2.3368   -1.9563    1.0512 H   0  0  0  0  0  0
    4.5274   -0.8043    0.8867 H   0  0  0  0  0  0
    4.3608   -2.3160    0.0359 H   0  0  0  0  0  0
    5.0319    1.2162   -0.3436 H   0  0  0  0  0  0
    5.6324    2.2868   -2.5014 H   0  0  0  0  0  0
    5.3227    1.0599   -4.6313 H   0  0  0  0  0  0
    3.7858   -2.3330   -2.4462 H   0  0  0  0  0  0
    3.9109   -2.4646   -4.7511 H   0  0  0  0  0  0
    6.3618   -2.3202   -5.0325 H   0  0  0  0  0  0
    6.1902   -0.8427   -5.9771 H   0  0  0  0  0  0
    5.5516   -2.3626   -6.5930 H   0  0  0  0  0  0
    2.3881   -0.6499   -5.4553 H   0  0  0  0  0  0
    3.1906   -1.3736   -6.8430 H   0  0  0  0  0  0
    3.7193    0.1932   -6.2437 H   0  0  0  0  0  0
    0.8215    0.1577    2.8802 H   0  0  0  0  0  0
  -10.2901   -1.4557   -1.4588 H   0  0  0  0  0  0
   -8.1062   -2.8651   -2.5442 H   0  0  0  0  0  0
   -6.6907    1.2602    5.7291 H   0  0  0  0  0  0
   -7.6286    2.2361    4.6090 H   0  0  0  0  0  0
   -6.7370    3.0119    5.9070 H   0  0  0  0  0  0
   -4.6357    3.1527    6.7794 H   0  0  0  0  0  0
   -2.4428    2.7886    7.8446 H   0  0  0  0  0  0
   -0.6657    1.5143    6.6585 H   0  0  0  0  0  0
   -1.1078    0.5882    4.3929 H   0  0  0  0  0  0
   -3.2995    0.9462    3.3085 H   0  0  0  0  0  0
  1  2  1  0  0  0
  1 53  1  0  0  0
  1 54  1  0  0  0
  1 55  1  0  0  0
  2 49  1  0  0  0
  2 21  1  0  0  0
  2  3  1  0  0  0
  3  4  1  0  0  0
  3 56  1  0  0  0
  3 57  1  0  0  0
  4  5  1  0  0  0
  4 58  1  0  0  0
  4 59  1  0  0  0
  5  6  1  0  0  0
  5 60  1  0  0  0
  5 61  1  0  0  0
  6  7  1  0  0  0
  6 62  1  0  0  0
  6 63  1  0  0  0
  7  8  1  0  0  0
  7 64  1  0  0  0
  7 65  1  0  0  0
  8  9  1  0  0  0
  8 41  1  0  0  0
  9 10  2  0  0  0
  9 11  1  0  0  0
 11 16  1  0  0  0
 11 12  2  0  0  0
 12 13  1  0  0  0
 12 66  1  0  0  0
 13 14  2  0  0  0
 13 36  1  0  0  0
 14 15  1  0  0  0
 14 67  1  0  0  0
 15 16  2  0  0  0
 15 17  1  0  0  0
 16 68  1  0  0  0
 17 18  2  0  0  0
 17 19  1  0  0  0
 19 20  1  0  0  0
 19 69  1  0  0  0
 20 50  1  0  0  0
 20 21  1  0  0  0
 20 22  1  0  0  0
 21 70  1  0  0  0
 21 71  1  0  0  0
 22 51  1  0  0  0
 22 23  1  0  0  0
 22 35  1  0  0  0
 23 24  1  0  0  0
 23 72  1  0  0  0
 23 73  1  0  0  0
 24 25  1  0  0  0
 24 74  1  0  0  0
 25 26  1  0  0  0
 25 75  1  0  0  0
 25 76  1  0  0  0
 26 31  1  0  0  0
 26 27  2  0  0  0
 27 28  1  0  0  0
 27 77  1  0  0  0
 28 29  2  0  0  0
 28 78  1  0  0  0
 29 30  1  0  0  0
 29 79  1  0  0  0
 30 31  2  0  0  0
 30 32  1  0  0  0
 31 80  1  0  0  0
 32 33  1  0  0  0
 32 34  1  0  0  0
 32 81  1  0  0  0
 33 82  1  0  0  0
 33 83  1  0  0  0
 33 84  1  0  0  0
 34 85  1  0  0  0
 34 86  1  0  0  0
 34 87  1  0  0  0
 35 88  1  0  0  0
 36 40  1  0  0  0
 36 37  2  0  0  0
 37 38  1  0  0  0
 38 39  2  0  0  0
 38 89  1  0  0  0
 39 40  1  0  0  0
 39 90  1  0  0  0
 41 52  1  0  0  0
 41 42  1  0  0  0
 41 43  1  0  0  0
 42 91  1  0  0  0
 42 92  1  0  0  0
 42 93  1  0  0  0
 43 48  1  0  0  0
 43 44  2  0  0  0
 44 45  1  0  0  0
 44 94  1  0  0  0
 45 46  2  0  0  0
 45 95  1  0  0  0
 46 47  1  0  0  0
 46 96  1  0  0  0
 47 48  2  0  0  0
 47 97  1  0  0  0
 48 98  1  0  0  0
M  END
> <s_m_source_file>
BACE_7.smi

> <i_m_source_file_index>
1

> <i_lp_mmshare_version>
42013

> <i_f3d_flags>
0

> <s_epik_input>
W2NIXTFbY0hdW2NIXVtjSF1bY0hdYzFbQ0BASF0oW0NIM10pTihDMj1PKVtDSDJdW0NIMl1bQ0gyXVtDSDJdW0NIMl1bQ0BASF0oW0NIM10pW0NIMl1bQ0BIXShbTkhdQyg9TyljKFtjSF0zKVtjSF1jKFtjSF1jMjMpLWM0bltjSF1bY0hdbzQpW0NASF0oW09IXSlbQ0gyXVtOSF1bQ0gyXWM1W2NIXVtjSF1bY0hdYyhbY0hdNSlbQ0hdKFtDSDNdKVtDSDNd

> <s_epik_cmdline>
J2VwaWtfcHl0aG9uJywgJy1waCcsICc3LjAnLCAnLXRuJywgJzgnLCAnLW1hJywgJzIwMCcsICctaW1hZScsICc8aW5maWxlLm1hZT4nLCAnLW9tYWUnLCAnPG91dGZpbGUubWFlPic=

> <r_epik_Ionization_Penalty>
2.12936

> <r_epik_Ionization_Penalty_Charging>
0

> <r_epik_Ionization_Penalty_Neutral>
2.12936

> <r_epik_State_Penalty>
2.26762

> <r_epik_Charging_Adjusted_Penalty>
2.26762

> <i_epik_Tot_Q>
0

> <i_epik_Tot_abs_Q>
0

> <s_lp_Force_Field>
OPLS_2005

> <r_lp_Energy>
63.2316

> <b_lp_Chiralities_Consistent>
1

> <s_lp_Variant>
BACE_7.smi:1-2

$$$$
