BACE_2.smi:1
                    3D
 Structure written by MMmdl.
 96 98  0  0  1  0            999 V2000
   -2.7732    2.4853    2.7063 C   0  0  0  0  0  0
   -2.0094    1.9308    3.7496 C   0  0  0  0  0  0
   -0.7791    1.3013    3.4699 C   0  0  0  0  0  0
    0.0641    0.6979    4.5860 C   0  0  0  0  0  0
   -0.7027   -0.3793    5.3686 C   0  0  0  0  0  0
    0.6317    1.7834    5.5122 C   0  0  0  0  0  0
   -0.3278    1.2347    2.1367 C   0  0  0  0  0  0
   -1.0912    1.7815    1.0801 C   0  0  0  0  0  0
   -2.3192    2.4284    1.3738 C   0  0  0  0  0  0
   -0.5998    1.6910   -0.3620 C   0  0  2  0  0  0
   -1.7118    2.0780   -1.3478 C   0  0  0  0  0  0
   -2.5257    3.2945   -0.8641 C   0  0  0  0  0  0
   -3.1127    3.0042    0.4046 O   0  0  0  0  0  0
   -1.6752    4.5772   -0.7501 C   0  0  0  0  0  0
   -3.7044    3.5465   -1.8185 C   0  0  0  0  0  0
   -0.1065    0.3337   -0.6868 N   0  3  0  0  0  0
    1.3651    0.1953   -0.7274 C   0  0  0  0  0  0
    1.7799   -1.2916   -0.6781 C   0  0  1  0  0  0
    1.4821   -1.8199   -1.9541 O   0  0  0  0  0  0
    3.2839   -1.5282   -0.3505 C   0  0  1  0  0  0
    3.7277   -0.7496    0.8124 N   0  0  0  0  0  0
    3.2610   -0.8261    2.0726 C   0  0  0  0  0  0
    2.3510   -1.5816    2.4128 O   0  0  0  0  0  0
    3.9135    0.0985    3.1106 C   0  0  2  0  0  0
    3.7241    1.6052    2.8204 C   0  0  0  0  0  0
    3.6706   -3.0184   -0.1380 C   0  0  0  0  0  0
    3.8942   -3.8784   -1.4067 C   0  0  2  0  0  0
    4.0845   -5.3619   -1.0416 C   0  0  0  0  0  0
    5.0002   -3.3618   -2.3674 C   0  0  0  0  0  0
    6.2708   -2.7391   -1.7476 C   0  0  0  0  0  0
    7.1403   -3.6860   -0.9021 C   0  0  0  0  0  0
    8.3860   -3.0081   -0.3058 C   0  0  0  0  0  0
    8.0439   -1.8535    0.6519 C   0  0  0  0  0  0
    9.2326   -1.4040    1.5131 C   0  0  0  0  0  0
    8.9739   -0.1344    2.3503 C   0  0  0  0  0  0
    7.8090   -0.2432    3.3644 C   0  0  0  0  0  0
    6.4099    0.1195    2.8101 C   0  0  0  0  0  0
    6.3478    0.8117    1.7937 O   0  0  0  0  0  0
    5.2961   -0.3121    3.4632 N   0  0  0  0  0  0
    5.3970   -1.3207    4.5271 C   0  0  0  0  0  0
    0.2143    2.4089   -0.4730 H   0  0  0  0  0  0
    1.1664   -1.8133    0.0574 H   0  0  0  0  0  0
    3.8635   -1.1214   -1.1781 H   0  0  0  0  0  0
    3.3225   -0.0374    4.0171 H   0  0  0  0  0  0
    2.9704   -3.8676   -1.9819 H   0  0  0  0  0  0
   -3.7120    2.9696    2.9322 H   0  0  0  0  0  0
   -2.3719    1.9950    4.7649 H   0  0  0  0  0  0
    0.9148    0.1984    4.1227 H   0  0  0  0  0  0
   -1.0554   -1.1682    4.7036 H   0  0  0  0  0  0
   -1.5691    0.0343    5.8853 H   0  0  0  0  0  0
   -0.0638   -0.8451    6.1194 H   0  0  0  0  0  0
    1.2275    2.5037    4.9505 H   0  0  0  0  0  0
    1.2773    1.3487    6.2759 H   0  0  0  0  0  0
   -0.1617    2.3312    6.0214 H   0  0  0  0  0  0
    0.6120    0.7476    1.9352 H   0  0  0  0  0  0
   -1.2914    2.2564   -2.3385 H   0  0  0  0  0  0
   -2.3980    1.2357   -1.4551 H   0  0  0  0  0  0
   -1.2232    4.8357   -1.7080 H   0  0  0  0  0  0
   -0.8704    4.4797   -0.0220 H   0  0  0  0  0  0
   -2.2868    5.4236   -0.4363 H   0  0  0  0  0  0
   -3.3564    3.7836   -2.8245 H   0  0  0  0  0  0
   -4.3186    4.3803   -1.4764 H   0  0  0  0  0  0
   -4.3522    2.6721   -1.8896 H   0  0  0  0  0  0
   -0.4757   -0.3042    0.0038 H   0  0  0  0  0  0
    1.7580    0.6857   -1.6194 H   0  0  0  0  0  0
    1.7795    0.7413    0.1172 H   0  0  0  0  0  0
    1.7029   -2.7393   -1.9570 H   0  0  0  0  0  0
    4.4828   -0.0989    0.6461 H   0  0  0  0  0  0
    2.6650    1.8637    2.8167 H   0  0  0  0  0  0
    4.1194    1.9071    1.8511 H   0  0  0  0  0  0
    4.2011    2.2165    3.5871 H   0  0  0  0  0  0
    4.5767   -3.0698    0.4660 H   0  0  0  0  0  0
    2.9041   -3.4910    0.4774 H   0  0  0  0  0  0
    4.9576   -5.5324   -0.4155 H   0  0  0  0  0  0
    4.1938   -5.9768   -1.9353 H   0  0  0  0  0  0
    3.2197   -5.7406   -0.4960 H   0  0  0  0  0  0
    5.2879   -4.1554   -3.0578 H   0  0  0  0  0  0
    4.5511   -2.5950   -2.9997 H   0  0  0  0  0  0
    6.8853   -2.3476   -2.5591 H   0  0  0  0  0  0
    5.9920   -1.8695   -1.1570 H   0  0  0  0  0  0
    6.5611   -4.0954   -0.0776 H   0  0  0  0  0  0
    7.4486   -4.5354   -1.5126 H   0  0  0  0  0  0
    8.9585   -3.7630    0.2346 H   0  0  0  0  0  0
    9.0357   -2.6469   -1.1037 H   0  0  0  0  0  0
    7.6790   -1.0013    0.0784 H   0  0  0  0  0  0
    7.2282   -2.1654    1.3046 H   0  0  0  0  0  0
    9.5261   -2.2201    2.1745 H   0  0  0  0  0  0
   10.0905   -1.2193    0.8656 H   0  0  0  0  0  0
    9.8848    0.0799    2.9102 H   0  0  0  0  0  0
    8.8480    0.7237    1.6894 H   0  0  0  0  0  0
    7.8363   -1.2425    3.7958 H   0  0  0  0  0  0
    7.9994    0.4461    4.1875 H   0  0  0  0  0  0
    6.0017   -0.9535    5.3572 H   0  0  0  0  0  0
    5.8459   -2.2386    4.1450 H   0  0  0  0  0  0
    4.4295   -1.6059    4.9409 H   0  0  0  0  0  0
   -0.4645    0.0642   -1.5921 H   0  0  0  0  0  0
  1  9  1  0  0  0
  1  2  2  0  0  0
  1 46  1  0  0  0
  2  3  1  0  0  0
  2 47  1  0  0  0
  3  4  1  0  0  0
  3  7  2  0  0  0
  4  5  1  0  0  0
  4  6  1  0  0  0
  4 48  1  0  0  0
  5 49  1  0  0  0
  5 50  1  0  0  0
  5 51  1  0  0  0
  6 52  1  0  0  0
  6 53  1  0  0  0
  6 54  1  0  0  0
  7  8  1  0  0  0
  7 55  1  0  0  0
  8  9  2  0  0  0
  8 10  1  0  0  0
  9 13  1  0  0  0
 10 41  1  0  0  0
 10 11  1  0  0  0
 10 16  1  0  0  0
 11 12  1  0  0  0
 11 56  1  0  0  0
 11 57  1  0  0  0
 12 13  1  0  0  0
 12 14  1  0  0  0
 12 15  1  0  0  0
 14 58  1  0  0  0
 14 59  1  0  0  0
 14 60  1  0  0  0
 15 61  1  0  0  0
 15 62  1  0  0  0
 15 63  1  0  0  0
 16 17  1  0  0  0
 16 64  1  0  0  0
 16 96  1  0  0  0
 17 18  1  0  0  0
 17 65  1  0  0  0
 17 66  1  0  0  0
 18 42  1  0  0  0
 18 19  1  0  0  0
 18 20  1  0  0  0
 19 67  1  0  0  0
 20 43  1  0  0  0
 20 21  1  0  0  0
 20 26  1  0  0  0
 21 22  1  0  0  0
 21 68  1  0  0  0
 22 23  2  0  0  0
 22 24  1  0  0  0
 24 44  1  0  0  0
 24 39  1  0  0  0
 24 25  1  0  0  0
 25 69  1  0  0  0
 25 70  1  0  0  0
 25 71  1  0  0  0
 26 27  1  0  0  0
 26 72  1  0  0  0
 26 73  1  0  0  0
 27 45  1  0  0  0
 27 28  1  0  0  0
 27 29  1  0  0  0
 28 74  1  0  0  0
 28 75  1  0  0  0
 28 76  1  0  0  0
 29 30  1  0  0  0
 29 77  1  0  0  0
 29 78  1  0  0  0
 30 31  1  0  0  0
 30 79  1  0  0  0
 30 80  1  0  0  0
 31 32  1  0  0  0
 31 81  1  0  0  0
 31 82  1  0  0  0
 32 33  1  0  0  0
 32 83  1  0  0  0
 32 84  1  0  0  0
 33 34  1  0  0  0
 33 85  1  0  0  0
 33 86  1  0  0  0
 34 35  1  0  0  0
 34 87  1  0  0  0
 34 88  1  0  0  0
 35 36  1  0  0  0
 35 89  1  0  0  0
 35 90  1  0  0  0
 36 37  1  0  0  0
 36 91  1  0  0  0
 36 92  1  0  0  0
 37 38  2  0  0  0
 37 39  1  0  0  0
 39 40  1  0  0  0
 40 93  1  0  0  0
 40 94  1  0  0  0
 40 95  1  0  0  0
M  CHG  1  16   1
M  END
> <s_m_source_file>
BACE_2.smi

> <i_m_source_file_index>
1

> <i_lp_mmshare_version>
42013

> <i_f3d_flags>
0

> <s_epik_input>
W0NIM11bQ0hdKFtDSDNdKWMoW2NIXTEpW2NIXVtjSF1jKGMxMilPQyhbQ0gzXSkoW0NIM10pW0NIMl1bQ0BASF0yW05IXVtDSDJdW0NAQEhdKFtPSF0pW0NASF0zW05IXUMoPU8pW0NASF0oW0NIM10pTihbQ0gzXSlDKD1PKVtDSDJdW0NIMl1bQ0gyXVtDSDJdW0NIMl1bQ0gyXVtDSDJdW0NIMl1bQ0BIXShbQ0gyXTMpW0NIM10=

> <s_epik_cmdline>
J2VwaWtfcHl0aG9uJywgJy1waCcsICc3LjAnLCAnLXRuJywgJzgnLCAnLW1hJywgJzIwMCcsICctaW1hZScsICc8aW5maWxlLm1hZT4nLCAnLW9tYWUnLCAnPG91dGZpbGUubWFlPic=

> <r_lp_tautomer_probability>
1

> <r_epik_Ionization_Penalty>
0.0187326

> <r_epik_Ionization_Penalty_Charging>
0.0187322

> <r_epik_Ionization_Penalty_Neutral>
3.10907e-07

> <r_epik_State_Penalty>
0.014922

> <r_epik_Charging_Adjusted_Penalty>
0.0336543

> <i_epik_Tot_Q>
1

> <i_epik_Tot_abs_Q>
1

> <s_lp_Force_Field>
OPLS_2005

> <r_lp_Energy>
39.6981

> <b_lp_Chiralities_Consistent>
1

> <s_lp_Variant>
BACE_2.smi:1-1

$$$$
BACE_2.smi:1
                    3D
 Structure written by MMmdl.
 95 97  0  0  1  0            999 V2000
   -4.2266    2.5677   -0.3762 C   0  0  0  0  0  0
   -4.8176    1.5792    0.4313 C   0  0  0  0  0  0
   -4.0169    0.6024    1.0590 C   0  0  0  0  0  0
   -4.6469   -0.4742    1.9336 C   0  0  0  0  0  0
   -5.5509   -1.4068    1.1127 C   0  0  0  0  0  0
   -5.3927    0.1292    3.1344 C   0  0  0  0  0  0
   -2.6208    0.6224    0.8590 C   0  0  0  0  0  0
   -2.0219    1.6002    0.0328 C   0  0  0  0  0  0
   -2.8320    2.5957   -0.5714 C   0  0  0  0  0  0
   -0.5152    1.5896   -0.1956 C   0  0  2  0  0  0
   -0.1198    2.5523   -1.3310 C   0  0  0  0  0  0
   -0.9222    3.8681   -1.2938 C   0  0  0  0  0  0
   -2.3200    3.5923   -1.3734 O   0  0  0  0  0  0
   -0.6389    4.6959   -0.0224 C   0  0  0  0  0  0
   -0.5975    4.7121   -2.5372 C   0  0  0  0  0  0
   -0.0083    0.2335   -0.4376 N   0  0  0  0  0  0
    1.4487    0.1089   -0.4890 C   0  0  0  0  0  0
    1.8824   -1.3717   -0.5771 C   0  0  1  0  0  0
    1.5825   -1.7854   -1.8949 O   0  0  0  0  0  0
    3.4011   -1.6065   -0.3267 C   0  0  1  0  0  0
    3.8954   -0.8616    0.8356 N   0  0  0  0  0  0
    3.5436   -1.0300    2.1225 C   0  0  0  0  0  0
    2.7176   -1.8618    2.4970 O   0  0  0  0  0  0
    4.2299   -0.1168    3.1484 C   0  0  2  0  0  0
    3.9758    1.3913    2.9219 C   0  0  0  0  0  0
    3.8134   -3.1002   -0.1996 C   0  0  0  0  0  0
    3.9684   -3.9049   -1.5140 C   0  0  2  0  0  0
    4.1935   -5.4003   -1.2242 C   0  0  0  0  0  0
    5.0102   -3.3372   -2.5166 C   0  0  0  0  0  0
    6.3105   -2.7265   -1.9485 C   0  0  0  0  0  0
    7.2328   -3.6935   -1.1854 C   0  0  0  0  0  0
    8.5053   -3.0242   -0.6370 C   0  0  0  0  0  0
    8.2101   -1.9003    0.3721 C   0  0  0  0  0  0
    9.4458   -1.4538    1.1665 C   0  0  0  0  0  0
    9.2288   -0.2021    2.0418 C   0  0  0  0  0  0
    8.1437   -0.3462    3.1367 C   0  0  0  0  0  0
    6.7007   -0.0078    2.6893 C   0  0  0  0  0  0
    6.5528    0.7149    1.7037 O   0  0  0  0  0  0
    5.6447   -0.4927    3.3995 N   0  0  0  0  0  0
    5.8443   -1.5253    4.4254 C   0  0  0  0  0  0
   -0.0793    1.9615    0.7324 H   0  0  0  0  0  0
    1.2990   -1.9681    0.1257 H   0  0  0  0  0  0
    3.9376   -1.1586   -1.1622 H   0  0  0  0  0  0
    3.6984   -0.3023    4.0829 H   0  0  0  0  0  0
    3.0105   -3.8800   -2.0305 H   0  0  0  0  0  0
   -4.8493    3.3147   -0.8462 H   0  0  0  0  0  0
   -5.8889    1.5762    0.5671 H   0  0  0  0  0  0
   -3.8394   -1.0868    2.3370 H   0  0  0  0  0  0
   -4.9944   -1.8708    0.2976 H   0  0  0  0  0  0
   -6.3939   -0.8696    0.6771 H   0  0  0  0  0  0
   -5.9538   -2.2080    1.7329 H   0  0  0  0  0  0
   -4.7259    0.7463    3.7375 H   0  0  0  0  0  0
   -5.7899   -0.6535    3.7811 H   0  0  0  0  0  0
   -6.2302    0.7523    2.8198 H   0  0  0  0  0  0
   -2.0050   -0.1262    1.3359 H   0  0  0  0  0  0
    0.9499    2.7617   -1.3031 H   0  0  0  0  0  0
   -0.3135    2.0635   -2.2876 H   0  0  0  0  0  0
    0.4202    4.9428    0.0574 H   0  0  0  0  0  0
   -0.9216    4.1664    0.8872 H   0  0  0  0  0  0
   -1.1959    5.6332   -0.0336 H   0  0  0  0  0  0
    0.4584    4.9831   -2.5676 H   0  0  0  0  0  0
   -1.1771    5.6357   -2.5511 H   0  0  0  0  0  0
   -0.8268    4.1697   -3.4551 H   0  0  0  0  0  0
   -0.3889   -0.4052    0.2532 H   0  0  0  0  0  0
    1.8627    0.6680   -1.3284 H   0  0  0  0  0  0
    1.8553    0.5656    0.4125 H   0  0  0  0  0  0
    1.7838   -2.7053   -1.9723 H   0  0  0  0  0  0
    4.5860   -0.1503    0.6418 H   0  0  0  0  0  0
    2.9097    1.6117    2.9895 H   0  0  0  0  0  0
    4.3020    1.7384    1.9419 H   0  0  0  0  0  0
    4.4783    1.9930    3.6797 H   0  0  0  0  0  0
    4.7532   -3.1654    0.3487 H   0  0  0  0  0  0
    3.0874   -3.6067    0.4374 H   0  0  0  0  0  0
    5.1057   -5.5866   -0.6617 H   0  0  0  0  0  0
    4.2521   -5.9761   -2.1482 H   0  0  0  0  0  0
    3.3678   -5.8104   -0.6420 H   0  0  0  0  0  0
    5.2620   -4.0983   -3.2560 H   0  0  0  0  0  0
    4.5172   -2.5493   -3.0877 H   0  0  0  0  0  0
    6.8752   -2.3010   -2.7788 H   0  0  0  0  0  0
    6.0586   -1.8804   -1.3134 H   0  0  0  0  0  0
    6.7040   -4.1344   -0.3436 H   0  0  0  0  0  0
    7.5112   -4.5198   -1.8403 H   0  0  0  0  0  0
    9.1107   -3.7904   -0.1513 H   0  0  0  0  0  0
    9.1085   -2.6353   -1.4581 H   0  0  0  0  0  0
    7.7988   -1.0387   -0.1538 H   0  0  0  0  0  0
    7.4415   -2.2404    1.0666 H   0  0  0  0  0  0
    9.7891   -2.2787    1.7921 H   0  0  0  0  0  0
   10.2591   -1.2477    0.4695 H   0  0  0  0  0  0
   10.1747    0.0186    2.5374 H   0  0  0  0  0  0
    9.0412    0.6646    1.4069 H   0  0  0  0  0  0
    8.2256   -1.3480    3.5544 H   0  0  0  0  0  0
    8.3789    0.3395    3.9512 H   0  0  0  0  0  0
    6.4856   -1.1587    5.2280 H   0  0  0  0  0  0
    6.2992   -2.4157    3.9901 H   0  0  0  0  0  0
    4.9142   -1.8564    4.8875 H   0  0  0  0  0  0
  1  9  1  0  0  0
  1  2  2  0  0  0
  1 46  1  0  0  0
  2  3  1  0  0  0
  2 47  1  0  0  0
  3  4  1  0  0  0
  3  7  2  0  0  0
  4  5  1  0  0  0
  4  6  1  0  0  0
  4 48  1  0  0  0
  5 49  1  0  0  0
  5 50  1  0  0  0
  5 51  1  0  0  0
  6 52  1  0  0  0
  6 53  1  0  0  0
  6 54  1  0  0  0
  7  8  1  0  0  0
  7 55  1  0  0  0
  8  9  2  0  0  0
  8 10  1  0  0  0
  9 13  1  0  0  0
 10 41  1  0  0  0
 10 11  1  0  0  0
 10 16  1  0  0  0
 11 12  1  0  0  0
 11 56  1  0  0  0
 11 57  1  0  0  0
 12 13  1  0  0  0
 12 14  1  0  0  0
 12 15  1  0  0  0
 14 58  1  0  0  0
 14 59  1  0  0  0
 14 60  1  0  0  0
 15 61  1  0  0  0
 15 62  1  0  0  0
 15 63  1  0  0  0
 16 17  1  0  0  0
 16 64  1  0  0  0
 17 18  1  0  0  0
 17 65  1  0  0  0
 17 66  1  0  0  0
 18 42  1  0  0  0
 18 19  1  0  0  0
 18 20  1  0  0  0
 19 67  1  0  0  0
 20 43  1  0  0  0
 20 21  1  0  0  0
 20 26  1  0  0  0
 21 22  1  0  0  0
 21 68  1  0  0  0
 22 23  2  0  0  0
 22 24  1  0  0  0
 24 44  1  0  0  0
 24 39  1  0  0  0
 24 25  1  0  0  0
 25 69  1  0  0  0
 25 70  1  0  0  0
 25 71  1  0  0  0
 26 27  1  0  0  0
 26 72  1  0  0  0
 26 73  1  0  0  0
 27 45  1  0  0  0
 27 28  1  0  0  0
 27 29  1  0  0  0
 28 74  1  0  0  0
 28 75  1  0  0  0
 28 76  1  0  0  0
 29 30  1  0  0  0
 29 77  1  0  0  0
 29 78  1  0  0  0
 30 31  1  0  0  0
 30 79  1  0  0  0
 30 80  1  0  0  0
 31 32  1  0  0  0
 31 81  1  0  0  0
 31 82  1  0  0  0
 32 33  1  0  0  0
 32 83  1  0  0  0
 32 84  1  0  0  0
 33 34  1  0  0  0
 33 85  1  0  0  0
 33 86  1  0  0  0
 34 35  1  0  0  0
 34 87  1  0  0  0
 34 88  1  0  0  0
 35 36  1  0  0  0
 35 89  1  0  0  0
 35 90  1  0  0  0
 36 37  1  0  0  0
 36 91  1  0  0  0
 36 92  1  0  0  0
 37 38  2  0  0  0
 37 39  1  0  0  0
 39 40  1  0  0  0
 40 93  1  0  0  0
 40 94  1  0  0  0
 40 95  1  0  0  0
M  END
> <s_m_source_file>
BACE_2.smi

> <i_m_source_file_index>
1

> <i_lp_mmshare_version>
42013

> <i_f3d_flags>
0

> <s_epik_input>
W0NIM11bQ0hdKFtDSDNdKWMoW2NIXTEpW2NIXVtjSF1jKGMxMilPQyhbQ0gzXSkoW0NIM10pW0NIMl1bQ0BASF0yW05IXVtDSDJdW0NAQEhdKFtPSF0pW0NASF0zW05IXUMoPU8pW0NASF0oW0NIM10pTihbQ0gzXSlDKD1PKVtDSDJdW0NIMl1bQ0gyXVtDSDJdW0NIMl1bQ0gyXVtDSDJdW0NIMl1bQ0BIXShbQ0gyXTMpW0NIM10=

> <s_epik_cmdline>
J2VwaWtfcHl0aG9uJywgJy1waCcsICc3LjAnLCAnLXRuJywgJzgnLCAnLW1hJywgJzIwMCcsICctaW1hZScsICc8aW5maWxlLm1hZT4nLCAnLW9tYWUnLCAnPG91dGZpbGUubWFlPic=

> <r_lp_tautomer_probability>
1

> <r_epik_Ionization_Penalty>
2.05583

> <r_epik_Ionization_Penalty_Charging>
0

> <r_epik_Ionization_Penalty_Neutral>
2.05583

> <r_epik_State_Penalty>
2.18867

> <r_epik_Charging_Adjusted_Penalty>
2.18867

> <i_epik_Tot_Q>
0

> <i_epik_Tot_abs_Q>
0

> <s_lp_Force_Field>
OPLS_2005

> <r_lp_Energy>
50.7677

> <b_lp_Chiralities_Consistent>
1

> <s_lp_Variant>
BACE_2.smi:1-2

$$$$
