BACE_16.smi:1
                    3D
 Structure written by MMmdl.
 85 88  0  0  1  0            999 V2000
   -4.3618    5.1131   -3.0333 C   0  0  0  0  0  0
   -3.3176    5.7273   -2.0880 C   0  0  0  0  0  0
   -1.9903    6.0025   -2.8116 C   0  0  0  0  0  0
   -3.1125    4.8712   -0.8446 C   0  0  0  0  0  0
   -3.4353    5.3875    0.4288 C   0  0  0  0  0  0
   -3.2460    4.6031    1.5827 C   0  0  0  0  0  0
   -2.7321    3.2975    1.4720 C   0  0  0  0  0  0
   -2.4069    2.7720    0.2046 C   0  0  0  0  0  0
   -2.5987    3.5596   -0.9497 C   0  0  0  0  0  0
   -1.8449    1.3704    0.0836 C   0  0  0  0  0  0
   -0.3722    1.3993    0.1540 N   0  3  0  0  0  0
    0.2609    0.0679    0.0741 C   0  0  0  0  0  0
    1.7988    0.1670    0.1613 C   0  0  2  0  0  0
    2.5339   -1.1944    0.0262 C   0  0  2  0  0  0
    4.0816   -1.0574    0.0513 C   0  0  0  0  0  0
    4.7003   -0.6965   -1.2939 C   0  0  0  0  0  0
    4.8024    0.6519   -1.6886 C   0  0  0  0  0  0
    5.3151    0.9748   -2.9578 C   0  0  0  0  0  0
    5.7289   -0.0446   -3.8367 C   0  0  0  0  0  0
    5.6486   -1.4061   -3.4480 C   0  0  0  0  0  0
    5.1432   -1.7131   -2.1682 C   0  0  0  0  0  0
    6.0318   -2.4723   -4.2380 O   0  0  0  0  0  0
    6.3075   -2.2570   -5.6201 C   0  0  0  0  0  0
    5.0047   -2.1034   -6.4258 C   0  0  0  0  0  0
    4.2650   -3.4380   -6.6198 C   0  0  0  0  0  0
    2.8367   -3.2576   -7.1659 C   0  0  0  0  0  0
    1.9873   -2.6774   -6.1780 O   0  0  0  0  0  0
    1.6394   -3.4560   -5.0957 C   0  0  0  0  0  0
    1.5770   -2.8277   -3.8384 C   0  0  0  0  0  0
    1.2741   -3.5659   -2.6712 C   0  0  0  0  0  0
    0.9714   -4.9399   -2.7842 C   0  0  0  0  0  0
    1.0009   -5.5847   -4.0451 C   0  0  0  0  0  0
    1.3412   -4.8356   -5.1888 C   0  0  0  0  0  0
    0.7215   -6.9203   -4.2349 O   0  0  0  0  0  0
    0.3722   -7.6922   -3.0940 C   0  0  0  0  0  0
    0.0955   -9.1353   -3.5116 C   0  0  0  0  0  0
    0.2104   -9.5126   -4.6769 O   0  0  0  0  0  0
   -0.3296  -10.1009   -2.4129 C   0  0  0  0  0  0
    1.2763   -2.9076   -1.3208 C   0  0  0  0  0  0
    0.5858   -3.3331   -0.3949 O   0  0  0  0  0  0
    2.1406   -1.8891   -1.1992 N   0  0  0  0  0  0
    2.1073    0.7177    1.4283 O   0  0  0  0  0  0
    2.1529    0.8513   -0.6100 H   0  0  0  0  0  0
    2.2497   -1.8018    0.8880 H   0  0  0  0  0  0
   -5.3157    4.9730   -2.5241 H   0  0  0  0  0  0
   -4.0407    4.1431   -3.4138 H   0  0  0  0  0  0
   -4.5404    5.7608   -3.8922 H   0  0  0  0  0  0
   -3.7098    6.6923   -1.7636 H   0  0  0  0  0  0
   -1.2728    6.4809   -2.1445 H   0  0  0  0  0  0
   -2.1401    6.6672   -3.6629 H   0  0  0  0  0  0
   -1.5373    5.0846   -3.1867 H   0  0  0  0  0  0
   -3.8295    6.3883    0.5283 H   0  0  0  0  0  0
   -3.4949    5.0048    2.5539 H   0  0  0  0  0  0
   -2.5876    2.7033    2.3626 H   0  0  0  0  0  0
   -2.3482    3.1556   -1.9198 H   0  0  0  0  0  0
   -2.2419    0.7446    0.8843 H   0  0  0  0  0  0
   -2.1627    0.9260   -0.8606 H   0  0  0  0  0  0
   -0.0238    1.9710   -0.6019 H   0  0  0  0  0  0
   -0.1247   -0.5727    0.8687 H   0  0  0  0  0  0
   -0.0408   -0.3787   -0.8732 H   0  0  0  0  0  0
    4.4083   -0.3420    0.8062 H   0  0  0  0  0  0
    4.5082   -2.0124    0.3610 H   0  0  0  0  0  0
    4.4759    1.4408   -1.0268 H   0  0  0  0  0  0
    5.3847    2.0086   -3.2629 H   0  0  0  0  0  0
    6.1050    0.2513   -4.8031 H   0  0  0  0  0  0
    5.0663   -2.7481   -1.8678 H   0  0  0  0  0  0
    6.9801   -1.4138   -5.7725 H   0  0  0  0  0  0
    6.8580   -3.1227   -5.9890 H   0  0  0  0  0  0
    4.3518   -1.3768   -5.9420 H   0  0  0  0  0  0
    5.2369   -1.6896   -7.4075 H   0  0  0  0  0  0
    4.8366   -4.0563   -7.3125 H   0  0  0  0  0  0
    4.2368   -3.9928   -5.6816 H   0  0  0  0  0  0
    2.8588   -2.5875   -8.0256 H   0  0  0  0  0  0
    2.4431   -4.1982   -7.5477 H   0  0  0  0  0  0
    1.8008   -1.7722   -3.7805 H   0  0  0  0  0  0
    0.7304   -5.4916   -1.8878 H   0  0  0  0  0  0
    1.3528   -5.3434   -6.1404 H   0  0  0  0  0  0
    1.1850   -7.6836   -2.3671 H   0  0  0  0  0  0
   -0.5200   -7.2825   -2.6194 H   0  0  0  0  0  0
   -0.8743   -9.5732   -1.6300 H   0  0  0  0  0  0
    0.5454  -10.5742   -1.9679 H   0  0  0  0  0  0
   -0.9763  -10.8791   -2.8183 H   0  0  0  0  0  0
    2.6602   -1.6375   -2.0283 H   0  0  0  0  0  0
    3.0456    0.8115    1.4967 H   0  0  0  0  0  0
   -0.1018    1.8243    1.0297 H   0  0  0  0  0  0
  1  2  1  0  0  0
  1 45  1  0  0  0
  1 46  1  0  0  0
  1 47  1  0  0  0
  2  3  1  0  0  0
  2  4  1  0  0  0
  2 48  1  0  0  0
  3 49  1  0  0  0
  3 50  1  0  0  0
  3 51  1  0  0  0
  4  9  1  0  0  0
  4  5  2  0  0  0
  5  6  1  0  0  0
  5 52  1  0  0  0
  6  7  2  0  0  0
  6 53  1  0  0  0
  7  8  1  0  0  0
  7 54  1  0  0  0
  8  9  2  0  0  0
  8 10  1  0  0  0
  9 55  1  0  0  0
 10 11  1  0  0  0
 10 56  1  0  0  0
 10 57  1  0  0  0
 11 12  1  0  0  0
 11 58  1  0  0  0
 11 85  1  0  0  0
 12 13  1  0  0  0
 12 59  1  0  0  0
 12 60  1  0  0  0
 13 43  1  0  0  0
 13 14  1  0  0  0
 13 42  1  0  0  0
 14 44  1  0  0  0
 14 41  1  0  0  0
 14 15  1  0  0  0
 15 16  1  0  0  0
 15 61  1  0  0  0
 15 62  1  0  0  0
 16 21  1  0  0  0
 16 17  2  0  0  0
 17 18  1  0  0  0
 17 63  1  0  0  0
 18 19  2  0  0  0
 18 64  1  0  0  0
 19 20  1  0  0  0
 19 65  1  0  0  0
 20 21  2  0  0  0
 20 22  1  0  0  0
 21 66  1  0  0  0
 22 23  1  0  0  0
 23 24  1  0  0  0
 23 67  1  0  0  0
 23 68  1  0  0  0
 24 25  1  0  0  0
 24 69  1  0  0  0
 24 70  1  0  0  0
 25 26  1  0  0  0
 25 71  1  0  0  0
 25 72  1  0  0  0
 26 27  1  0  0  0
 26 73  1  0  0  0
 26 74  1  0  0  0
 27 28  1  0  0  0
 28 33  1  0  0  0
 28 29  2  0  0  0
 29 30  1  0  0  0
 29 75  1  0  0  0
 30 31  2  0  0  0
 30 39  1  0  0  0
 31 32  1  0  0  0
 31 76  1  0  0  0
 32 33  2  0  0  0
 32 34  1  0  0  0
 33 77  1  0  0  0
 34 35  1  0  0  0
 35 36  1  0  0  0
 35 78  1  0  0  0
 35 79  1  0  0  0
 36 37  2  0  0  0
 36 38  1  0  0  0
 38 80  1  0  0  0
 38 81  1  0  0  0
 38 82  1  0  0  0
 39 40  2  0  0  0
 39 41  1  0  0  0
 41 83  1  0  0  0
 42 84  1  0  0  0
M  CHG  1  11   1
M  END
> <s_m_source_file>
BACE_16.smi

> <i_m_source_file_index>
1

> <i_lp_mmshare_version>
42013

> <i_f3d_flags>
0

> <s_epik_input>
W0NIM11bQ0hdKFtDSDNdKWMxW2NIXVtjSF1bY0hdYyhbY0hdMSlbQ0gyXVtOSF1bQ0gyXVtDQEBIXShbT0hdKVtDQEhdKFtDSDJdMilbTkhdQyg9TyljKFtjSF1jKFtjSF0zKU9bQ0gyXUMoPU8pW0NIM10pW2NIXWMzT1tDSDJdW0NIMl1bQ0gyXVtDSDJdT2MoW2NIXTQpW2NIXVtjSF1bY0hdYzI0

> <s_epik_cmdline>
J2VwaWtfcHl0aG9uJywgJy1waCcsICc3LjAnLCAnLXRuJywgJzgnLCAnLW1hJywgJzIwMCcsICctaW1hZScsICc8aW5maWxlLm1hZT4nLCAnLW9tYWUnLCAnPG91dGZpbGUubWFlPic=

> <r_lp_tautomer_probability>
1

> <r_epik_Ionization_Penalty>
0.0191203

> <r_epik_Ionization_Penalty_Charging>
0.0191194

> <r_epik_Ionization_Penalty_Neutral>
9.73569e-07

> <r_epik_State_Penalty>
0.0152524

> <r_epik_Charging_Adjusted_Penalty>
0.0343718

> <i_epik_Tot_Q>
1

> <i_epik_Tot_abs_Q>
1

> <s_lp_Force_Field>
OPLS_2005

> <r_lp_Energy>
32.7148

> <b_lp_Chiralities_Consistent>
1

> <s_lp_Variant>
BACE_16.smi:1-1

$$$$
BACE_16.smi:1
                    3D
 Structure written by MMmdl.
 84 87  0  0  1  0            999 V2000
   -3.3554    0.6113   -5.9868 C   0  0  0  0  0  0
   -2.0199    0.6291   -5.2285 C   0  0  0  0  0  0
   -0.8643    0.1274   -6.1073 C   0  0  0  0  0  0
   -2.1172   -0.1373   -3.9151 C   0  0  0  0  0  0
   -2.2926   -1.5387   -3.9043 C   0  0  0  0  0  0
   -2.3892   -2.2331   -2.6829 C   0  0  0  0  0  0
   -2.3156   -1.5318   -1.4644 C   0  0  0  0  0  0
   -2.1407   -0.1325   -1.4646 C   0  0  0  0  0  0
   -2.0410    0.5585   -2.6898 C   0  0  0  0  0  0
   -2.0275    0.6303   -0.1568 C   0  0  0  0  0  0
   -0.6458    1.0037    0.1328 N   0  0  0  0  0  0
    0.1379   -0.0876    0.7076 C   0  0  0  0  0  0
    1.6529    0.1555    0.5282 C   0  0  2  0  0  0
    2.4796   -1.1336    0.2639 C   0  0  2  0  0  0
    3.9942   -0.8535    0.0575 C   0  0  0  0  0  0
    4.3559   -0.3804   -1.3462 C   0  0  0  0  0  0
    4.2754    0.9869   -1.6749 C   0  0  0  0  0  0
    4.5421    1.4106   -2.9890 C   0  0  0  0  0  0
    4.8920    0.4732   -3.9797 C   0  0  0  0  0  0
    4.9956   -0.9048   -3.6615 C   0  0  0  0  0  0
    4.7366   -1.3124   -2.3366 C   0  0  0  0  0  0
    5.3343   -1.8947   -4.5633 O   0  0  0  0  0  0
    5.3448   -1.5974   -5.9576 C   0  0  0  0  0  0
    3.9131   -1.5432   -6.5207 C   0  0  0  0  0  0
    3.2829   -2.9379   -6.6733 C   0  0  0  0  0  0
    1.7734   -2.8830   -6.9710 C   0  0  0  0  0  0
    1.0512   -2.4363   -5.8261 O   0  0  0  0  0  0
    0.9621   -3.2944   -4.7535 C   0  0  0  0  0  0
    1.0940   -2.7419   -3.4667 C   0  0  0  0  0  0
    1.0677   -3.5649   -2.3168 C   0  0  0  0  0  0
    0.8443   -4.9508   -2.4688 C   0  0  0  0  0  0
    0.6737   -5.5198   -3.7545 C   0  0  0  0  0  0
    0.7410   -4.6843   -4.8863 C   0  0  0  0  0  0
    0.4484   -6.8597   -3.9822 O   0  0  0  0  0  0
    0.3712   -7.7199   -2.8540 C   0  0  0  0  0  0
    0.1034   -9.1515   -3.3151 C   0  0  0  0  0  0
   -0.0435   -9.4393   -4.5022 O   0  0  0  0  0  0
    0.0266  -10.2217   -2.2337 C   0  0  0  0  0  0
    1.2710   -2.9850   -0.9445 C   0  0  0  0  0  0
    0.8705   -3.5679    0.0631 O   0  0  0  0  0  0
    1.9726   -1.8417   -0.9130 N   0  0  0  0  0  0
    2.1118    0.7547    1.7232 O   0  0  0  0  0  0
    1.8174    0.8512   -0.2953 H   0  0  0  0  0  0
    2.3803   -1.7702    1.1452 H   0  0  0  0  0  0
   -4.1578    1.0259   -5.3757 H   0  0  0  0  0  0
   -3.6413   -0.4021   -6.2702 H   0  0  0  0  0  0
   -3.2959    1.2061   -6.8987 H   0  0  0  0  0  0
   -1.8024    1.6703   -4.9864 H   0  0  0  0  0  0
    0.0838    0.1680   -5.5702 H   0  0  0  0  0  0
   -0.7608    0.7396   -7.0035 H   0  0  0  0  0  0
   -1.0237   -0.9008   -6.4320 H   0  0  0  0  0  0
   -2.3517   -2.0885   -4.8321 H   0  0  0  0  0  0
   -2.5150   -3.3058   -2.6814 H   0  0  0  0  0  0
   -2.3821   -2.0720   -0.5313 H   0  0  0  0  0  0
   -1.9029    1.6301   -2.6849 H   0  0  0  0  0  0
   -2.6344    1.5316   -0.2470 H   0  0  0  0  0  0
   -2.4565    0.0531    0.6635 H   0  0  0  0  0  0
   -0.2036    1.2896   -0.7349 H   0  0  0  0  0  0
   -0.1225   -0.2410    1.7558 H   0  0  0  0  0  0
   -0.1454   -1.0112    0.2114 H   0  0  0  0  0  0
    4.3705   -0.1394    0.7903 H   0  0  0  0  0  0
    4.5464   -1.7749    0.2469 H   0  0  0  0  0  0
    3.9923    1.7116   -0.9254 H   0  0  0  0  0  0
    4.4691    2.4581   -3.2416 H   0  0  0  0  0  0
    5.0755    0.8443   -4.9753 H   0  0  0  0  0  0
    4.7980   -2.3619   -2.0872 H   0  0  0  0  0  0
    5.9010   -0.6861   -6.1741 H   0  0  0  0  0  0
    5.8999   -2.3881   -6.4632 H   0  0  0  0  0  0
    3.2874   -0.9136   -5.8876 H   0  0  0  0  0  0
    3.9300   -1.0609   -7.4984 H   0  0  0  0  0  0
    3.7885   -3.4626   -7.4844 H   0  0  0  0  0  0
    3.4633   -3.5329   -5.7774 H   0  0  0  0  0  0
    1.5876   -2.1775   -7.7813 H   0  0  0  0  0  0
    1.4132   -3.8427   -7.3379 H   0  0  0  0  0  0
    1.2465   -1.6755   -3.3813 H   0  0  0  0  0  0
    0.8141   -5.5701   -1.5847 H   0  0  0  0  0  0
    0.6042   -5.1336   -5.8573 H   0  0  0  0  0  0
    1.3071   -7.6961   -2.2947 H   0  0  0  0  0  0
   -0.4354   -7.4037   -2.1917 H   0  0  0  0  0  0
   -0.3264   -9.7940   -1.2951 H   0  0  0  0  0  0
    1.0108  -10.6597   -2.0673 H   0  0  0  0  0  0
   -0.6599  -11.0145   -2.5312 H   0  0  0  0  0  0
    2.2538   -1.4592   -1.8044 H   0  0  0  0  0  0
    1.6071    1.5393    1.8746 H   0  0  0  0  0  0
  1  2  1  0  0  0
  1 45  1  0  0  0
  1 46  1  0  0  0
  1 47  1  0  0  0
  2  3  1  0  0  0
  2  4  1  0  0  0
  2 48  1  0  0  0
  3 49  1  0  0  0
  3 50  1  0  0  0
  3 51  1  0  0  0
  4  9  1  0  0  0
  4  5  2  0  0  0
  5  6  1  0  0  0
  5 52  1  0  0  0
  6  7  2  0  0  0
  6 53  1  0  0  0
  7  8  1  0  0  0
  7 54  1  0  0  0
  8  9  2  0  0  0
  8 10  1  0  0  0
  9 55  1  0  0  0
 10 11  1  0  0  0
 10 56  1  0  0  0
 10 57  1  0  0  0
 11 12  1  0  0  0
 11 58  1  0  0  0
 12 13  1  0  0  0
 12 59  1  0  0  0
 12 60  1  0  0  0
 13 43  1  0  0  0
 13 14  1  0  0  0
 13 42  1  0  0  0
 14 44  1  0  0  0
 14 41  1  0  0  0
 14 15  1  0  0  0
 15 16  1  0  0  0
 15 61  1  0  0  0
 15 62  1  0  0  0
 16 21  1  0  0  0
 16 17  2  0  0  0
 17 18  1  0  0  0
 17 63  1  0  0  0
 18 19  2  0  0  0
 18 64  1  0  0  0
 19 20  1  0  0  0
 19 65  1  0  0  0
 20 21  2  0  0  0
 20 22  1  0  0  0
 21 66  1  0  0  0
 22 23  1  0  0  0
 23 24  1  0  0  0
 23 67  1  0  0  0
 23 68  1  0  0  0
 24 25  1  0  0  0
 24 69  1  0  0  0
 24 70  1  0  0  0
 25 26  1  0  0  0
 25 71  1  0  0  0
 25 72  1  0  0  0
 26 27  1  0  0  0
 26 73  1  0  0  0
 26 74  1  0  0  0
 27 28  1  0  0  0
 28 33  1  0  0  0
 28 29  2  0  0  0
 29 30  1  0  0  0
 29 75  1  0  0  0
 30 31  2  0  0  0
 30 39  1  0  0  0
 31 32  1  0  0  0
 31 76  1  0  0  0
 32 33  2  0  0  0
 32 34  1  0  0  0
 33 77  1  0  0  0
 34 35  1  0  0  0
 35 36  1  0  0  0
 35 78  1  0  0  0
 35 79  1  0  0  0
 36 37  2  0  0  0
 36 38  1  0  0  0
 38 80  1  0  0  0
 38 81  1  0  0  0
 38 82  1  0  0  0
 39 40  2  0  0  0
 39 41  1  0  0  0
 41 83  1  0  0  0
 42 84  1  0  0  0
M  END
> <s_m_source_file>
BACE_16.smi

> <i_m_source_file_index>
1

> <i_lp_mmshare_version>
42013

> <i_f3d_flags>
0

> <s_epik_input>
W0NIM11bQ0hdKFtDSDNdKWMxW2NIXVtjSF1bY0hdYyhbY0hdMSlbQ0gyXVtOSF1bQ0gyXVtDQEBIXShbT0hdKVtDQEhdKFtDSDJdMilbTkhdQyg9TyljKFtjSF1jKFtjSF0zKU9bQ0gyXUMoPU8pW0NIM10pW2NIXWMzT1tDSDJdW0NIMl1bQ0gyXVtDSDJdT2MoW2NIXTQpW2NIXVtjSF1bY0hdYzI0

> <s_epik_cmdline>
J2VwaWtfcHl0aG9uJywgJy1waCcsICc3LjAnLCAnLXRuJywgJzgnLCAnLW1hJywgJzIwMCcsICctaW1hZScsICc8aW5maWxlLm1hZT4nLCAnLW9tYWUnLCAnPG91dGZpbGUubWFlPic=

> <r_lp_tautomer_probability>
1

> <r_epik_Ionization_Penalty>
2.04391

> <r_epik_Ionization_Penalty_Charging>
0

> <r_epik_Ionization_Penalty_Neutral>
2.04391

> <r_epik_State_Penalty>
2.17586

> <r_epik_Charging_Adjusted_Penalty>
2.17586

> <i_epik_Tot_Q>
0

> <i_epik_Tot_abs_Q>
0

> <s_lp_Force_Field>
OPLS_2005

> <r_lp_Energy>
40.5038

> <b_lp_Chiralities_Consistent>
1

> <s_lp_Variant>
BACE_16.smi:1-2

$$$$
