BACE_15.smi:1
                    3D
 Structure written by MMmdl.
 83 86  0  0  1  0            999 V2000
   -2.4813    2.5526   -5.1622 C   0  0  0  0  0  0
   -0.9588    2.3452   -5.1918 C   0  0  0  0  0  0
   -0.5838    0.9761   -5.7817 C   0  0  0  0  0  0
   -0.3353    2.5538   -3.8174 C   0  0  0  0  0  0
    0.5946    3.5962   -3.6148 C   0  0  0  0  0  0
    1.1786    3.7913   -2.3487 C   0  0  0  0  0  0
    0.8379    2.9454   -1.2766 C   0  0  0  0  0  0
   -0.0899    1.9005   -1.4683 C   0  0  0  0  0  0
   -0.6756    1.7101   -2.7369 C   0  0  0  0  0  0
   -0.4546    0.9784   -0.3188 C   0  0  0  0  0  0
    0.2273   -0.3296   -0.4163 N   0  3  0  0  0  0
    1.6954   -0.2843   -0.2466 C   0  0  0  0  0  0
    2.3106   -1.6987   -0.2911 C   0  0  2  0  0  0
    3.8372   -1.7245   -0.0105 C   0  0  2  0  0  0
    4.4356   -3.1581   -0.0044 C   0  0  0  0  0  0
    5.8913   -3.2057    0.4360 C   0  0  0  0  0  0
    6.8992   -2.7433   -0.4331 C   0  0  0  0  0  0
    8.2392   -2.7242   -0.0079 C   0  0  0  0  0  0
    8.5707   -3.1535    1.2906 C   0  0  0  0  0  0
    7.5771   -3.6217    2.1748 C   0  0  0  0  0  0
    6.2331   -3.6677    1.7263 C   0  0  0  0  0  0
    8.0009   -3.9827    3.4360 O   0  0  0  0  0  0
    7.0645   -4.4650    4.3942 C   0  0  0  0  0  0
    7.6731   -4.2460    5.7879 C   0  0  0  0  0  0
    7.6517   -2.7644    6.2076 C   0  0  0  0  0  0
    6.3552   -2.3491    6.9310 C   0  0  0  0  0  0
    6.1651   -0.9370    6.8686 O   0  0  0  0  0  0
    5.6813   -0.3755    5.7028 C   0  0  0  0  0  0
    5.8624    1.0122    5.5343 C   0  0  0  0  0  0
    5.4190    1.6669    4.3663 C   0  0  0  0  0  0
    4.7616    0.9300    3.3598 C   0  0  0  0  0  0
    4.5610   -0.4582    3.5128 C   0  0  0  0  0  0
    5.0124   -1.0996    4.6850 C   0  0  0  0  0  0
    3.8567   -1.2580    2.4587 C   0  0  0  0  0  0
    3.0807   -2.1632    2.7652 O   0  0  0  0  0  0
    4.2093   -0.9714    1.1936 N   0  0  0  0  0  0
    5.6223    3.1630    4.2135 C   0  0  0  0  0  0
    5.8182    3.5430    2.8601 O   0  0  0  0  0  0
    6.0157    4.9378    2.7091 C   0  0  0  0  0  0
    2.0927   -2.2076   -1.5935 O   0  0  0  0  0  0
    1.7927   -2.3441    0.4195 H   0  0  0  0  0  0
    4.3267   -1.1789   -0.8187 H   0  0  0  0  0  0
   -2.7330    3.5466   -4.7911 H   0  0  0  0  0  0
   -2.9763    1.8221   -4.5218 H   0  0  0  0  0  0
   -2.9085    2.4573   -6.1607 H   0  0  0  0  0  0
   -0.5474    3.1035   -5.8596 H   0  0  0  0  0  0
    0.4986    0.8627   -5.8476 H   0  0  0  0  0  0
   -0.9878    0.8592   -6.7876 H   0  0  0  0  0  0
   -0.9683    0.1556   -5.1755 H   0  0  0  0  0  0
    0.8658    4.2514   -4.4297 H   0  0  0  0  0  0
    1.8899    4.5905   -2.2006 H   0  0  0  0  0  0
    1.2936    3.1000   -0.3095 H   0  0  0  0  0  0
   -1.3857    0.9090   -2.8817 H   0  0  0  0  0  0
   -0.2200    1.4484    0.6373 H   0  0  0  0  0  0
   -1.5321    0.8107   -0.3290 H   0  0  0  0  0  0
   -0.1500   -0.9347    0.2987 H   0  0  0  0  0  0
    2.1464    0.3426   -1.0169 H   0  0  0  0  0  0
    1.8993    0.1938    0.7116 H   0  0  0  0  0  0
    3.8480   -3.8034    0.6500 H   0  0  0  0  0  0
    4.3629   -3.5988   -0.9992 H   0  0  0  0  0  0
    6.6450   -2.3894   -1.4216 H   0  0  0  0  0  0
    9.0118   -2.3651   -0.6716 H   0  0  0  0  0  0
    9.6002   -3.1164    1.6155 H   0  0  0  0  0  0
    5.4389   -4.0223    2.3637 H   0  0  0  0  0  0
    6.1037   -3.9568    4.3550 H   0  0  0  0  0  0
    6.8887   -5.5259    4.2139 H   0  0  0  0  0  0
    7.1443   -4.8463    6.5291 H   0  0  0  0  0  0
    8.7008   -4.6116    5.7839 H   0  0  0  0  0  0
    8.4934   -2.5606    6.8702 H   0  0  0  0  0  0
    7.8172   -2.1401    5.3289 H   0  0  0  0  0  0
    5.4849   -2.9030    6.5840 H   0  0  0  0  0  0
    6.4450   -2.6206    7.9830 H   0  0  0  0  0  0
    6.3596    1.5778    6.3091 H   0  0  0  0  0  0
    4.4062    1.4353    2.4733 H   0  0  0  0  0  0
    4.8306   -2.1572    4.7761 H   0  0  0  0  0  0
    4.8710   -0.2197    1.0614 H   0  0  0  0  0  0
    4.7474    3.6723    4.6201 H   0  0  0  0  0  0
    6.4846    3.4709    4.8072 H   0  0  0  0  0  0
    6.1530    5.1759    1.6545 H   0  0  0  0  0  0
    6.9038    5.2705    3.2477 H   0  0  0  0  0  0
    5.1545    5.5003    3.0721 H   0  0  0  0  0  0
    2.4400   -3.0860   -1.6364 H   0  0  0  0  0  0
    0.0231   -0.7342   -1.3193 H   0  0  0  0  0  0
  1  2  1  0  0  0
  1 43  1  0  0  0
  1 44  1  0  0  0
  1 45  1  0  0  0
  2  3  1  0  0  0
  2  4  1  0  0  0
  2 46  1  0  0  0
  3 47  1  0  0  0
  3 48  1  0  0  0
  3 49  1  0  0  0
  4  9  1  0  0  0
  4  5  2  0  0  0
  5  6  1  0  0  0
  5 50  1  0  0  0
  6  7  2  0  0  0
  6 51  1  0  0  0
  7  8  1  0  0  0
  7 52  1  0  0  0
  8  9  2  0  0  0
  8 10  1  0  0  0
  9 53  1  0  0  0
 10 11  1  0  0  0
 10 54  1  0  0  0
 10 55  1  0  0  0
 11 12  1  0  0  0
 11 56  1  0  0  0
 11 83  1  0  0  0
 12 13  1  0  0  0
 12 57  1  0  0  0
 12 58  1  0  0  0
 13 41  1  0  0  0
 13 14  1  0  0  0
 13 40  1  0  0  0
 14 42  1  0  0  0
 14 36  1  0  0  0
 14 15  1  0  0  0
 15 16  1  0  0  0
 15 59  1  0  0  0
 15 60  1  0  0  0
 16 21  1  0  0  0
 16 17  2  0  0  0
 17 18  1  0  0  0
 17 61  1  0  0  0
 18 19  2  0  0  0
 18 62  1  0  0  0
 19 20  1  0  0  0
 19 63  1  0  0  0
 20 21  2  0  0  0
 20 22  1  0  0  0
 21 64  1  0  0  0
 22 23  1  0  0  0
 23 24  1  0  0  0
 23 65  1  0  0  0
 23 66  1  0  0  0
 24 25  1  0  0  0
 24 67  1  0  0  0
 24 68  1  0  0  0
 25 26  1  0  0  0
 25 69  1  0  0  0
 25 70  1  0  0  0
 26 27  1  0  0  0
 26 71  1  0  0  0
 26 72  1  0  0  0
 27 28  1  0  0  0
 28 33  1  0  0  0
 28 29  2  0  0  0
 29 30  1  0  0  0
 29 73  1  0  0  0
 30 31  2  0  0  0
 30 37  1  0  0  0
 31 32  1  0  0  0
 31 74  1  0  0  0
 32 33  2  0  0  0
 32 34  1  0  0  0
 33 75  1  0  0  0
 34 35  2  0  0  0
 34 36  1  0  0  0
 36 76  1  0  0  0
 37 38  1  0  0  0
 37 77  1  0  0  0
 37 78  1  0  0  0
 38 39  1  0  0  0
 39 79  1  0  0  0
 39 80  1  0  0  0
 39 81  1  0  0  0
 40 82  1  0  0  0
M  CHG  1  11   1
M  END
> <s_m_source_file>
BACE_15.smi

> <i_m_source_file_index>
1

> <i_lp_mmshare_version>
42013

> <i_f3d_flags>
0

> <s_epik_input>
W0NIM11bQ0hdKFtDSDNdKWMxW2NIXVtjSF1bY0hdYyhbY0hdMSlbQ0gyXVtOSF1bQ0gyXVtDQEBIXShbT0hdKVtDQEhdKFtDSDJdMilbTkhdQyg9TyljKFtjSF0zKVtjSF1jKFtDSDJdT1tDSDNdKVtjSF1jM09bQ0gyXVtDSDJdW0NIMl1bQ0gyXU9jKFtjSF00KVtjSF1bY0hdW2NIXWMyNA==

> <s_epik_cmdline>
J2VwaWtfcHl0aG9uJywgJy1waCcsICc3LjAnLCAnLXRuJywgJzgnLCAnLW1hJywgJzIwMCcsICctaW1hZScsICc8aW5maWxlLm1hZT4nLCAnLW9tYWUnLCAnPG91dGZpbGUubWFlPic=

> <r_lp_tautomer_probability>
1

> <r_epik_Ionization_Penalty>
0.0191203

> <r_epik_Ionization_Penalty_Charging>
0.0191194

> <r_epik_Ionization_Penalty_Neutral>
8.76464e-07

> <r_epik_State_Penalty>
0.0152524

> <r_epik_Charging_Adjusted_Penalty>
0.0343718

> <i_epik_Tot_Q>
1

> <i_epik_Tot_abs_Q>
1

> <s_lp_Force_Field>
OPLS_2005

> <r_lp_Energy>
33.7913

> <b_lp_Chiralities_Consistent>
1

> <s_lp_Variant>
BACE_15.smi:1-1

$$$$
BACE_15.smi:1
                    3D
 Structure written by MMmdl.
 82 85  0  0  1  0            999 V2000
    0.6687    1.8773   -6.0273 C   0  0  0  0  0  0
   -0.5645    1.9649   -5.1146 C   0  0  0  0  0  0
   -1.7062    2.7530   -5.7747 C   0  0  0  0  0  0
   -0.2110    2.5299   -3.7447 C   0  0  0  0  0  0
    0.3031    3.8388   -3.6153 C   0  0  0  0  0  0
    0.6310    4.3508   -2.3456 C   0  0  0  0  0  0
    0.4502    3.5576   -1.1971 C   0  0  0  0  0  0
   -0.0595    2.2482   -1.3141 C   0  0  0  0  0  0
   -0.3949    1.7418   -2.5884 C   0  0  0  0  0  0
   -0.2506    1.3968   -0.0697 C   0  0  0  0  0  0
    0.2961    0.0464   -0.1948 N   0  0  0  0  0  0
    1.7566   -0.0017   -0.2383 C   0  0  0  0  0  0
    2.2664   -1.4554   -0.3268 C   0  0  2  0  0  0
    3.7875   -1.6023   -0.0558 C   0  0  2  0  0  0
    4.2739   -3.0777   -0.0850 C   0  0  0  0  0  0
    5.7306   -3.2477    0.3216 C   0  0  0  0  0  0
    6.7529   -2.8783   -0.5747 C   0  0  0  0  0  0
    8.0998   -2.9803   -0.1846 C   0  0  0  0  0  0
    8.4250   -3.4363    1.1064 C   0  0  0  0  0  0
    7.4171   -3.8118    2.0182 C   0  0  0  0  0  0
    6.0632   -3.7375    1.6043 C   0  0  0  0  0  0
    7.8421   -4.2070    3.2691 O   0  0  0  0  0  0
    6.8980   -4.6146    4.2547 C   0  0  0  0  0  0
    7.5456   -4.4028    5.6323 C   0  0  0  0  0  0
    7.6100   -2.9152    6.0266 C   0  0  0  0  0  0
    6.3804   -2.4372    6.8245 C   0  0  0  0  0  0
    6.2637   -1.0161    6.7856 O   0  0  0  0  0  0
    5.7508   -0.4154    5.6521 C   0  0  0  0  0  0
    5.9194    0.9790    5.5280 C   0  0  0  0  0  0
    5.4424    1.6707    4.3946 C   0  0  0  0  0  0
    4.7717    0.9636    3.3757 C   0  0  0  0  0  0
    4.5848   -0.4303    3.4851 C   0  0  0  0  0  0
    5.0643   -1.1078    4.6243 C   0  0  0  0  0  0
    3.8606   -1.1994    2.4226 C   0  0  0  0  0  0
    3.0633   -2.0884    2.7215 O   0  0  0  0  0  0
    4.2170   -0.9031    1.1611 N   0  0  0  0  0  0
    5.6164    3.1745    4.2937 C   0  0  0  0  0  0
    5.8276    3.6009    2.9568 O   0  0  0  0  0  0
    5.9538    5.0077    2.8472 C   0  0  0  0  0  0
    2.0203   -1.8911   -1.6496 O   0  0  0  0  0  0
    1.7071   -2.0885    0.3633 H   0  0  0  0  0  0
    4.3127   -1.0774   -0.8554 H   0  0  0  0  0  0
    1.4514    1.2718   -5.5694 H   0  0  0  0  0  0
    1.0873    2.8622   -6.2357 H   0  0  0  0  0  0
    0.4161    1.4180   -6.9832 H   0  0  0  0  0  0
   -0.9241    0.9455   -4.9686 H   0  0  0  0  0  0
   -2.5930    2.7604   -5.1403 H   0  0  0  0  0  0
   -1.9885    2.3073   -6.7287 H   0  0  0  0  0  0
   -1.4238    3.7887   -5.9652 H   0  0  0  0  0  0
    0.4481    4.4559   -4.4895 H   0  0  0  0  0  0
    1.0234    5.3529   -2.2530 H   0  0  0  0  0  0
    0.7064    3.9576   -0.2269 H   0  0  0  0  0  0
   -0.7891    0.7399   -2.6768 H   0  0  0  0  0  0
    0.1822    1.8990    0.7964 H   0  0  0  0  0  0
   -1.3226    1.3350    0.1186 H   0  0  0  0  0  0
   -0.0482   -0.5357    0.5623 H   0  0  0  0  0  0
    2.1421    0.5832   -1.0745 H   0  0  0  0  0  0
    2.1375    0.4733    0.6653 H   0  0  0  0  0  0
    3.6514   -3.6887    0.5696 H   0  0  0  0  0  0
    4.1461   -3.4932   -1.0852 H   0  0  0  0  0  0
    6.5053   -2.5051   -1.5577 H   0  0  0  0  0  0
    8.8839   -2.6944   -0.8700 H   0  0  0  0  0  0
    9.4620   -3.4928    1.4034 H   0  0  0  0  0  0
    5.2561   -4.0201    2.2612 H   0  0  0  0  0  0
    5.9653   -4.0570    4.2259 H   0  0  0  0  0  0
    6.6607   -5.6675    4.1001 H   0  0  0  0  0  0
    7.0018   -4.9627    6.3941 H   0  0  0  0  0  0
    8.5523   -4.8220    5.6157 H   0  0  0  0  0  0
    8.5005   -2.7354    6.6298 H   0  0  0  0  0  0
    7.7429   -2.3108    5.1286 H   0  0  0  0  0  0
    5.4617   -2.9355    6.5186 H   0  0  0  0  0  0
    6.5108   -2.7263    7.8676 H   0  0  0  0  0  0
    6.4284    1.5212    6.3116 H   0  0  0  0  0  0
    4.3908    1.4955    2.5155 H   0  0  0  0  0  0
    4.8929   -2.1693    4.6803 H   0  0  0  0  0  0
    4.8957   -0.1662    1.0348 H   0  0  0  0  0  0
    4.7210    3.6485    4.6988 H   0  0  0  0  0  0
    6.4591    3.4852    4.9136 H   0  0  0  0  0  0
    6.1173    5.2808    1.8048 H   0  0  0  0  0  0
    6.8007    5.3746    3.4287 H   0  0  0  0  0  0
    5.0490    5.5122    3.1888 H   0  0  0  0  0  0
    1.1008   -1.7718   -1.8335 H   0  0  0  0  0  0
  1  2  1  0  0  0
  1 43  1  0  0  0
  1 44  1  0  0  0
  1 45  1  0  0  0
  2  3  1  0  0  0
  2  4  1  0  0  0
  2 46  1  0  0  0
  3 47  1  0  0  0
  3 48  1  0  0  0
  3 49  1  0  0  0
  4  9  1  0  0  0
  4  5  2  0  0  0
  5  6  1  0  0  0
  5 50  1  0  0  0
  6  7  2  0  0  0
  6 51  1  0  0  0
  7  8  1  0  0  0
  7 52  1  0  0  0
  8  9  2  0  0  0
  8 10  1  0  0  0
  9 53  1  0  0  0
 10 11  1  0  0  0
 10 54  1  0  0  0
 10 55  1  0  0  0
 11 12  1  0  0  0
 11 56  1  0  0  0
 12 13  1  0  0  0
 12 57  1  0  0  0
 12 58  1  0  0  0
 13 41  1  0  0  0
 13 14  1  0  0  0
 13 40  1  0  0  0
 14 42  1  0  0  0
 14 36  1  0  0  0
 14 15  1  0  0  0
 15 16  1  0  0  0
 15 59  1  0  0  0
 15 60  1  0  0  0
 16 21  1  0  0  0
 16 17  2  0  0  0
 17 18  1  0  0  0
 17 61  1  0  0  0
 18 19  2  0  0  0
 18 62  1  0  0  0
 19 20  1  0  0  0
 19 63  1  0  0  0
 20 21  2  0  0  0
 20 22  1  0  0  0
 21 64  1  0  0  0
 22 23  1  0  0  0
 23 24  1  0  0  0
 23 65  1  0  0  0
 23 66  1  0  0  0
 24 25  1  0  0  0
 24 67  1  0  0  0
 24 68  1  0  0  0
 25 26  1  0  0  0
 25 69  1  0  0  0
 25 70  1  0  0  0
 26 27  1  0  0  0
 26 71  1  0  0  0
 26 72  1  0  0  0
 27 28  1  0  0  0
 28 33  1  0  0  0
 28 29  2  0  0  0
 29 30  1  0  0  0
 29 73  1  0  0  0
 30 31  2  0  0  0
 30 37  1  0  0  0
 31 32  1  0  0  0
 31 74  1  0  0  0
 32 33  2  0  0  0
 32 34  1  0  0  0
 33 75  1  0  0  0
 34 35  2  0  0  0
 34 36  1  0  0  0
 36 76  1  0  0  0
 37 38  1  0  0  0
 37 77  1  0  0  0
 37 78  1  0  0  0
 38 39  1  0  0  0
 39 79  1  0  0  0
 39 80  1  0  0  0
 39 81  1  0  0  0
 40 82  1  0  0  0
M  END
> <s_m_source_file>
BACE_15.smi

> <i_m_source_file_index>
1

> <i_lp_mmshare_version>
42013

> <i_f3d_flags>
0

> <s_epik_input>
W0NIM11bQ0hdKFtDSDNdKWMxW2NIXVtjSF1bY0hdYyhbY0hdMSlbQ0gyXVtOSF1bQ0gyXVtDQEBIXShbT0hdKVtDQEhdKFtDSDJdMilbTkhdQyg9TyljKFtjSF0zKVtjSF1jKFtDSDJdT1tDSDNdKVtjSF1jM09bQ0gyXVtDSDJdW0NIMl1bQ0gyXU9jKFtjSF00KVtjSF1bY0hdW2NIXWMyNA==

> <s_epik_cmdline>
J2VwaWtfcHl0aG9uJywgJy1waCcsICc3LjAnLCAnLXRuJywgJzgnLCAnLW1hJywgJzIwMCcsICctaW1hZScsICc8aW5maWxlLm1hZT4nLCAnLW9tYWUnLCAnPG91dGZpbGUubWFlPic=

> <r_lp_tautomer_probability>
1

> <r_epik_Ionization_Penalty>
2.04391

> <r_epik_Ionization_Penalty_Charging>
0

> <r_epik_Ionization_Penalty_Neutral>
2.04391

> <r_epik_State_Penalty>
2.17586

> <r_epik_Charging_Adjusted_Penalty>
2.17586

> <i_epik_Tot_Q>
0

> <i_epik_Tot_abs_Q>
0

> <s_lp_Force_Field>
OPLS_2005

> <r_lp_Energy>
41.685

> <b_lp_Chiralities_Consistent>
1

> <s_lp_Variant>
BACE_15.smi:1-2

$$$$
