BACE_6.smi:1
                    3D
 Structure written by MMmdl.
 83 85  0  0  1  0            999 V2000
   -1.2567    7.8072   -6.2430 C   0  0  0  0  0  0
   -0.4622    7.7860   -4.9289 C   0  0  0  0  0  0
   -0.3571    6.4191   -4.3875 N   0  0  0  0  0  0
   -1.3973    6.0923   -3.3853 C   0  0  0  0  0  0
   -2.3163    4.9055   -3.7593 C   0  0  0  0  0  0
   -3.5819    4.8118   -2.8826 C   0  0  0  0  0  0
   -3.3477    4.5561   -1.3785 C   0  0  0  0  0  0
   -3.0012    3.0960   -1.0213 C   0  0  0  0  0  0
   -2.6756    2.8641    0.4800 C   0  0  2  0  0  0
   -2.1984    1.4146    0.7766 C   0  0  0  0  0  0
   -0.6640    1.1946    0.7417 C   0  0  2  0  0  0
   -0.1779    1.4976   -0.5999 N   0  0  0  0  0  0
    0.7536    2.4049   -0.9296 C   0  0  0  0  0  0
    1.4066    3.0623   -0.1199 O   0  0  0  0  0  0
    0.8570    2.6458   -2.4013 C   0  0  0  0  0  0
    0.9043    1.5643   -3.3087 C   0  0  0  0  0  0
    0.9120    1.8079   -4.6941 C   0  0  0  0  0  0
    0.8374    3.1280   -5.1761 C   0  0  0  0  0  0
    0.7754    4.2155   -4.2773 C   0  0  0  0  0  0
    0.8558    3.9678   -2.8896 C   0  0  0  0  0  0
    0.6516    5.6102   -4.8216 C   0  0  0  0  0  0
    1.4501    5.9553   -5.6946 O   0  0  0  0  0  0
   -0.2495   -0.2496    1.1290 C   0  0  1  0  0  0
    1.2745   -0.4903    1.0773 C   0  0  0  0  0  0
    1.5982   -1.9331    1.0615 N   0  3  0  0  0  0
    3.0270   -2.2493    0.8410 C   0  0  0  0  0  0
    3.5086   -1.7739   -0.5202 C   0  0  0  0  0  0
    4.3175   -0.6230   -0.6244 C   0  0  0  0  0  0
    4.7172   -0.1532   -1.8892 C   0  0  0  0  0  0
    4.3117   -0.8317   -3.0536 C   0  0  0  0  0  0
    3.5078   -1.9890   -2.9606 C   0  0  0  0  0  0
    3.1131   -2.4577   -1.6888 C   0  0  0  0  0  0
    3.0583   -2.7236   -4.2168 C   0  0  0  0  0  0
    4.2529   -3.2704   -5.0143 C   0  0  0  0  0  0
    2.1475   -1.8451   -5.0882 C   0  0  0  0  0  0
   -0.6710   -0.5264    2.4503 O   0  0  0  0  0  0
   -3.8812    3.2094    1.3760 C   0  0  0  0  0  0
   -1.8716    3.5453    0.7623 H   0  0  0  0  0  0
   -0.2118    1.8798    1.4614 H   0  0  0  0  0  0
   -0.7491   -0.9482    0.4557 H   0  0  0  0  0  0
   -1.3352    8.8225   -6.6316 H   0  0  0  0  0  0
   -2.2686    7.4285   -6.0964 H   0  0  0  0  0  0
   -0.7784    7.1963   -7.0091 H   0  0  0  0  0  0
    0.5282    8.2135   -5.0955 H   0  0  0  0  0  0
   -0.9249    8.4639   -4.2112 H   0  0  0  0  0  0
   -0.9366    5.9395   -2.4122 H   0  0  0  0  0  0
   -2.0479    6.9540   -3.2353 H   0  0  0  0  0  0
   -2.6304    5.0216   -4.7973 H   0  0  0  0  0  0
   -1.7859    3.9569   -3.7137 H   0  0  0  0  0  0
   -4.1390    5.7433   -2.9907 H   0  0  0  0  0  0
   -4.2375    4.0357   -3.2789 H   0  0  0  0  0  0
   -2.5836    5.2289   -0.9909 H   0  0  0  0  0  0
   -4.2680    4.8304   -0.8637 H   0  0  0  0  0  0
   -3.8278    2.4490   -1.3171 H   0  0  0  0  0  0
   -2.1575    2.7916   -1.6362 H   0  0  0  0  0  0
   -2.5445    1.1327    1.7711 H   0  0  0  0  0  0
   -2.6943    0.7170    0.1002 H   0  0  0  0  0  0
   -0.6624    1.0436   -1.3608 H   0  0  0  0  0  0
    0.9266    0.5450   -2.9506 H   0  0  0  0  0  0
    0.9477    0.9821   -5.3889 H   0  0  0  0  0  0
    0.8089    3.3003   -6.2425 H   0  0  0  0  0  0
    0.8552    4.7903   -2.1901 H   0  0  0  0  0  0
    1.6820   -0.0555    0.1683 H   0  0  0  0  0  0
    1.7812    0.0023    1.9085 H   0  0  0  0  0  0
    1.3090   -2.3320    1.9434 H   0  0  0  0  0  0
    3.6270   -1.8026    1.6351 H   0  0  0  0  0  0
    3.1637   -3.3290    0.9113 H   0  0  0  0  0  0
    4.6215   -0.0869    0.2629 H   0  0  0  0  0  0
    5.3302    0.7327   -1.9673 H   0  0  0  0  0  0
    4.6196   -0.4577   -4.0189 H   0  0  0  0  0  0
    2.4900   -3.3363   -1.6068 H   0  0  0  0  0  0
    2.4653   -3.5837   -3.9032 H   0  0  0  0  0  0
    4.8632   -3.9326   -4.3997 H   0  0  0  0  0  0
    4.8952   -2.4693   -5.3808 H   0  0  0  0  0  0
    3.9165   -3.8429   -5.8790 H   0  0  0  0  0  0
    1.2763   -1.5074   -4.5263 H   0  0  0  0  0  0
    1.7850   -2.3974   -5.9556 H   0  0  0  0  0  0
    2.6708   -0.9617   -5.4556 H   0  0  0  0  0  0
   -0.3113    0.1310    3.0268 H   0  0  0  0  0  0
   -4.7519    2.6047    1.1203 H   0  0  0  0  0  0
   -4.1639    4.2580    1.2937 H   0  0  0  0  0  0
   -3.6538    3.0354    2.4283 H   0  0  0  0  0  0
    1.0649   -2.3686    0.3227 H   0  0  0  0  0  0
  1  2  1  0  0  0
  1 41  1  0  0  0
  1 42  1  0  0  0
  1 43  1  0  0  0
  2  3  1  0  0  0
  2 44  1  0  0  0
  2 45  1  0  0  0
  3 21  1  0  0  0
  3  4  1  0  0  0
  4  5  1  0  0  0
  4 46  1  0  0  0
  4 47  1  0  0  0
  5  6  1  0  0  0
  5 48  1  0  0  0
  5 49  1  0  0  0
  6  7  1  0  0  0
  6 50  1  0  0  0
  6 51  1  0  0  0
  7  8  1  0  0  0
  7 52  1  0  0  0
  7 53  1  0  0  0
  8  9  1  0  0  0
  8 54  1  0  0  0
  8 55  1  0  0  0
  9 38  1  0  0  0
  9 10  1  0  0  0
  9 37  1  0  0  0
 10 11  1  0  0  0
 10 56  1  0  0  0
 10 57  1  0  0  0
 11 39  1  0  0  0
 11 12  1  0  0  0
 11 23  1  0  0  0
 12 13  1  0  0  0
 12 58  1  0  0  0
 13 14  2  0  0  0
 13 15  1  0  0  0
 15 20  1  0  0  0
 15 16  2  0  0  0
 16 17  1  0  0  0
 16 59  1  0  0  0
 17 18  2  0  0  0
 17 60  1  0  0  0
 18 19  1  0  0  0
 18 61  1  0  0  0
 19 20  2  0  0  0
 19 21  1  0  0  0
 20 62  1  0  0  0
 21 22  2  0  0  0
 23 40  1  0  0  0
 23 24  1  0  0  0
 23 36  1  0  0  0
 24 25  1  0  0  0
 24 63  1  0  0  0
 24 64  1  0  0  0
 25 26  1  0  0  0
 25 65  1  0  0  0
 25 83  1  0  0  0
 26 27  1  0  0  0
 26 66  1  0  0  0
 26 67  1  0  0  0
 27 32  1  0  0  0
 27 28  2  0  0  0
 28 29  1  0  0  0
 28 68  1  0  0  0
 29 30  2  0  0  0
 29 69  1  0  0  0
 30 31  1  0  0  0
 30 70  1  0  0  0
 31 32  2  0  0  0
 31 33  1  0  0  0
 32 71  1  0  0  0
 33 34  1  0  0  0
 33 35  1  0  0  0
 33 72  1  0  0  0
 34 73  1  0  0  0
 34 74  1  0  0  0
 34 75  1  0  0  0
 35 76  1  0  0  0
 35 77  1  0  0  0
 35 78  1  0  0  0
 36 79  1  0  0  0
 37 80  1  0  0  0
 37 81  1  0  0  0
 37 82  1  0  0  0
M  CHG  1  25   1
M  END
> <s_m_source_file>
BACE_6.smi

> <i_m_source_file_index>
1

> <i_lp_mmshare_version>
42013

> <i_f3d_flags>
0

> <s_epik_input>
YzEyW2NIXVtjSF1bY0hdYyhbY0hdMilDKD1PKU4oW0NIMl1bQ0gzXSlbQ0gyXVtDSDJdW0NIMl1bQ0gyXVtDSDJdW0NAQEhdKFtDSDNdKVtDSDJdW0NASF0oW05IXUMxPU8pW0NASF0oW09IXSlbQ0gyXVtOSF1bQ0gyXWMzW2NIXVtjSF1bY0hdYyhbY0hdMylbQ0hdKFtDSDNdKVtDSDNd

> <s_epik_cmdline>
J2VwaWtfcHl0aG9uJywgJy1waCcsICc3LjAnLCAnLXRuJywgJzgnLCAnLW1hJywgJzIwMCcsICctaW1hZScsICc8aW5maWxlLm1hZT4nLCAnLW9tYWUnLCAnPG91dGZpbGUubWFlPic=

> <r_epik_Ionization_Penalty>
0.016516

> <r_epik_Ionization_Penalty_Charging>
0.0165153

> <r_epik_Ionization_Penalty_Neutral>
7.37205e-07

> <r_epik_State_Penalty>
0.0130399

> <r_epik_Charging_Adjusted_Penalty>
0.0295552

> <i_epik_Tot_Q>
1

> <i_epik_Tot_abs_Q>
1

> <s_lp_Force_Field>
OPLS_2005

> <r_lp_Energy>
42.7267

> <b_lp_Chiralities_Consistent>
1

> <s_lp_Variant>
BACE_6.smi:1-1

$$$$
BACE_6.smi:1
                    3D
 Structure written by MMmdl.
 82 84  0  0  1  0            999 V2000
   -0.7171    7.6294   -6.3301 C   0  0  0  0  0  0
    0.1316    7.4849   -5.0588 C   0  0  0  0  0  0
    0.0379    6.1236   -4.5020 N   0  0  0  0  0  0
   -0.9967    5.9794   -3.4521 C   0  0  0  0  0  0
   -2.0916    4.9278   -3.7498 C   0  0  0  0  0  0
   -3.3114    5.0332   -2.8123 C   0  0  0  0  0  0
   -3.0405    4.7718   -1.3156 C   0  0  0  0  0  0
   -2.8838    3.2837   -0.9387 C   0  0  0  0  0  0
   -2.5404    3.0358    0.5563 C   0  0  2  0  0  0
   -2.2531    1.5403    0.8718 C   0  0  0  0  0  0
   -0.7644    1.1100    0.8011 C   0  0  2  0  0  0
   -0.2917    1.3031   -0.5649 N   0  0  0  0  0  0
    0.7202    2.0884   -0.9644 C   0  0  0  0  0  0
    1.4737    2.7002   -0.2080 O   0  0  0  0  0  0
    0.7846    2.2679   -2.4476 C   0  0  0  0  0  0
    0.6434    1.1641   -3.3175 C   0  0  0  0  0  0
    0.6213    1.3624   -4.7098 C   0  0  0  0  0  0
    0.7027    2.6651   -5.2355 C   0  0  0  0  0  0
    0.8310    3.7772   -4.3744 C   0  0  0  0  0  0
    0.9398    3.5620   -2.9831 C   0  0  0  0  0  0
    0.8854    5.1588   -4.9615 C   0  0  0  0  0  0
    1.6784    5.3564   -5.8839 O   0  0  0  0  0  0
   -0.5428   -0.3627    1.2552 C   0  0  1  0  0  0
    0.9199   -0.8572    1.1800 C   0  0  0  0  0  0
    1.3223   -1.1624   -0.1892 N   0  0  0  0  0  0
    2.7370   -1.4703   -0.3490 C   0  0  0  0  0  0
    3.1746   -1.2647   -1.7847 C   0  0  0  0  0  0
    2.7830   -2.1789   -2.7837 C   0  0  0  0  0  0
    3.1581   -1.9622   -4.1230 C   0  0  0  0  0  0
    3.9273   -0.8340   -4.4669 C   0  0  0  0  0  0
    4.3311    0.0840   -3.4724 C   0  0  0  0  0  0
    3.9459   -0.1358   -2.1322 C   0  0  0  0  0  0
    5.1680    1.3055   -3.8329 C   0  0  0  0  0  0
    4.3641    2.3123   -4.6672 C   0  0  0  0  0  0
    6.4846    0.9179   -4.5250 C   0  0  0  0  0  0
   -0.9120   -0.4663    2.6159 O   0  0  0  0  0  0
   -3.6572    3.5563    1.4829 C   0  0  0  0  0  0
   -1.6426    3.6066    0.7981 H   0  0  0  0  0  0
   -0.1983    1.7550    1.4760 H   0  0  0  0  0  0
   -1.1875   -1.0329    0.6845 H   0  0  0  0  0  0
   -0.6396    8.6389   -6.7340 H   0  0  0  0  0  0
   -1.7697    7.4351   -6.1235 H   0  0  0  0  0  0
   -0.3943    6.9363   -7.1071 H   0  0  0  0  0  0
    1.1685    7.7416   -5.2830 H   0  0  0  0  0  0
   -0.1739    8.2341   -4.3278 H   0  0  0  0  0  0
   -0.5225    5.7911   -2.4920 H   0  0  0  0  0  0
   -1.5107    6.9303   -3.3103 H   0  0  0  0  0  0
   -2.4376    5.0660   -4.7747 H   0  0  0  0  0  0
   -1.7010    3.9138   -3.7022 H   0  0  0  0  0  0
   -3.7336    6.0334   -2.9167 H   0  0  0  0  0  0
   -4.0905    4.3528   -3.1580 H   0  0  0  0  0  0
   -2.1717    5.3370   -0.9799 H   0  0  0  0  0  0
   -3.8869    5.1827   -0.7665 H   0  0  0  0  0  0
   -3.8013    2.7515   -1.1925 H   0  0  0  0  0  0
   -2.1119    2.8548   -1.5734 H   0  0  0  0  0  0
   -2.6053    1.3281    1.8813 H   0  0  0  0  0  0
   -2.8587    0.9030    0.2259 H   0  0  0  0  0  0
   -0.8464    0.8695   -1.2887 H   0  0  0  0  0  0
    0.5460    0.1620   -2.9251 H   0  0  0  0  0  0
    0.5181    0.5170   -5.3740 H   0  0  0  0  0  0
    0.6528    2.8074   -6.3055 H   0  0  0  0  0  0
    1.0869    4.3965   -2.3140 H   0  0  0  0  0  0
    1.5765   -0.0994    1.6098 H   0  0  0  0  0  0
    1.0426   -1.7537    1.7897 H   0  0  0  0  0  0
    1.0711   -0.3947   -0.8040 H   0  0  0  0  0  0
    3.3398   -0.8208    0.2870 H   0  0  0  0  0  0
    2.9436   -2.4943   -0.0362 H   0  0  0  0  0  0
    2.1860   -3.0413   -2.5256 H   0  0  0  0  0  0
    2.8528   -2.6607   -4.8881 H   0  0  0  0  0  0
    4.2051   -0.6773   -5.4987 H   0  0  0  0  0  0
    4.2358    0.5686   -1.3661 H   0  0  0  0  0  0
    5.4373    1.8065   -2.9022 H   0  0  0  0  0  0
    3.4828    2.6460   -4.1219 H   0  0  0  0  0  0
    4.0301    1.8808   -5.6112 H   0  0  0  0  0  0
    4.9588    3.1964   -4.8983 H   0  0  0  0  0  0
    7.0674    0.2376   -3.9035 H   0  0  0  0  0  0
    7.0993    1.7985   -4.7135 H   0  0  0  0  0  0
    6.3107    0.4290   -5.4840 H   0  0  0  0  0  0
   -0.8192   -1.3678    2.8837 H   0  0  0  0  0  0
   -4.6094    3.0695    1.2697 H   0  0  0  0  0  0
   -3.8006    4.6317    1.3869 H   0  0  0  0  0  0
   -3.4178    3.3723    2.5307 H   0  0  0  0  0  0
  1  2  1  0  0  0
  1 41  1  0  0  0
  1 42  1  0  0  0
  1 43  1  0  0  0
  2  3  1  0  0  0
  2 44  1  0  0  0
  2 45  1  0  0  0
  3 21  1  0  0  0
  3  4  1  0  0  0
  4  5  1  0  0  0
  4 46  1  0  0  0
  4 47  1  0  0  0
  5  6  1  0  0  0
  5 48  1  0  0  0
  5 49  1  0  0  0
  6  7  1  0  0  0
  6 50  1  0  0  0
  6 51  1  0  0  0
  7  8  1  0  0  0
  7 52  1  0  0  0
  7 53  1  0  0  0
  8  9  1  0  0  0
  8 54  1  0  0  0
  8 55  1  0  0  0
  9 38  1  0  0  0
  9 10  1  0  0  0
  9 37  1  0  0  0
 10 11  1  0  0  0
 10 56  1  0  0  0
 10 57  1  0  0  0
 11 39  1  0  0  0
 11 12  1  0  0  0
 11 23  1  0  0  0
 12 13  1  0  0  0
 12 58  1  0  0  0
 13 14  2  0  0  0
 13 15  1  0  0  0
 15 20  1  0  0  0
 15 16  2  0  0  0
 16 17  1  0  0  0
 16 59  1  0  0  0
 17 18  2  0  0  0
 17 60  1  0  0  0
 18 19  1  0  0  0
 18 61  1  0  0  0
 19 20  2  0  0  0
 19 21  1  0  0  0
 20 62  1  0  0  0
 21 22  2  0  0  0
 23 40  1  0  0  0
 23 24  1  0  0  0
 23 36  1  0  0  0
 24 25  1  0  0  0
 24 63  1  0  0  0
 24 64  1  0  0  0
 25 26  1  0  0  0
 25 65  1  0  0  0
 26 27  1  0  0  0
 26 66  1  0  0  0
 26 67  1  0  0  0
 27 32  1  0  0  0
 27 28  2  0  0  0
 28 29  1  0  0  0
 28 68  1  0  0  0
 29 30  2  0  0  0
 29 69  1  0  0  0
 30 31  1  0  0  0
 30 70  1  0  0  0
 31 32  2  0  0  0
 31 33  1  0  0  0
 32 71  1  0  0  0
 33 34  1  0  0  0
 33 35  1  0  0  0
 33 72  1  0  0  0
 34 73  1  0  0  0
 34 74  1  0  0  0
 34 75  1  0  0  0
 35 76  1  0  0  0
 35 77  1  0  0  0
 35 78  1  0  0  0
 36 79  1  0  0  0
 37 80  1  0  0  0
 37 81  1  0  0  0
 37 82  1  0  0  0
M  END
> <s_m_source_file>
BACE_6.smi

> <i_m_source_file_index>
1

> <i_lp_mmshare_version>
42013

> <i_f3d_flags>
0

> <s_epik_input>
YzEyW2NIXVtjSF1bY0hdYyhbY0hdMilDKD1PKU4oW0NIMl1bQ0gzXSlbQ0gyXVtDSDJdW0NIMl1bQ0gyXVtDSDJdW0NAQEhdKFtDSDNdKVtDSDJdW0NASF0oW05IXUMxPU8pW0NASF0oW09IXSlbQ0gyXVtOSF1bQ0gyXWMzW2NIXVtjSF1bY0hdYyhbY0hdMylbQ0hdKFtDSDNdKVtDSDNd

> <s_epik_cmdline>
J2VwaWtfcHl0aG9uJywgJy1waCcsICc3LjAnLCAnLXRuJywgJzgnLCAnLW1hJywgJzIwMCcsICctaW1hZScsICc8aW5maWxlLm1hZT4nLCAnLW9tYWUnLCAnPG91dGZpbGUubWFlPic=

> <r_epik_Ionization_Penalty>
2.12936

> <r_epik_Ionization_Penalty_Charging>
0

> <r_epik_Ionization_Penalty_Neutral>
2.12936

> <r_epik_State_Penalty>
2.26762

> <r_epik_Charging_Adjusted_Penalty>
2.26762

> <i_epik_Tot_Q>
0

> <i_epik_Tot_abs_Q>
0

> <s_lp_Force_Field>
OPLS_2005

> <r_lp_Energy>
47.7451

> <b_lp_Chiralities_Consistent>
1

> <s_lp_Variant>
BACE_6.smi:1-2

$$$$
