BACE_11.smi:1
 OpenBabel10031817133D
Structure written by MMmdl.
 81 83  0  0  1  0  0  0  0  0999 V2000
   21.9784   41.3689   -4.8139 C   0  0  0  0  0  0  0  0  0  0  0  0
   21.7852   41.2946   -6.3416 C   0  0  1  0  0  0  0  0  0  0  0  0
   20.9988   40.0555   -6.8202 C   0  0  0  0  0  0  0  0  0  0  0  0
   21.3676   38.9501   -6.4396 O   0  0  0  0  0  0  0  0  0  0  0  0
   19.9840   40.1999   -7.6928 N   0  0  0  0  0  0  0  0  0  0  0  0
   19.2567   39.1189   -8.3845 C   0  0  1  0  0  0  0  0  0  0  0  0
   20.1524   38.4358   -9.4484 C   0  0  0  0  0  0  0  0  0  0  0  0
   20.7333   39.4660  -10.4021 C   0  0  0  0  0  0  0  0  0  0  0  0
   20.0154   39.8436  -11.5539 C   0  0  0  0  0  0  0  0  0  0  0  0
   20.4868   40.8939  -12.3603 C   0  0  0  0  0  0  0  0  0  0  0  0
   21.6562   41.5905  -11.9981 C   0  0  0  0  0  0  0  0  0  0  0  0
   22.3843   41.2219  -10.8397 C   0  0  0  0  0  0  0  0  0  0  0  0
   21.9351   40.1284  -10.0807 C   0  0  0  0  0  0  0  0  0  0  0  0
   23.5081   41.8737  -10.3788 O   0  0  0  0  0  0  0  0  0  0  0  0
   24.0349   42.9500  -11.1421 C   0  0  0  0  0  0  0  0  0  0  0  0
   25.1628   43.6509  -10.3673 C   0  0  0  0  0  0  0  0  0  0  0  0
   24.6765   44.7157   -9.3608 C   0  0  0  0  0  0  0  0  0  0  0  0
   24.7541   44.3187   -7.8721 C   0  0  0  0  0  0  0  0  0  0  0  0
   23.8098   43.1905   -7.4017 C   0  0  0  0  0  0  0  0  0  0  0  0
   22.3043   43.5248   -7.3890 C   0  0  0  0  0  0  0  0  0  0  0  0
   21.9394   44.6253   -7.8079 O   0  0  0  0  0  0  0  0  0  0  0  0
   21.4143   42.6220   -6.8935 N   0  0  0  0  0  0  0  0  0  0  0  0
   20.0154   43.0465   -6.7385 C   0  0  0  0  0  0  0  0  0  0  0  0
   18.5519   38.1369   -7.4052 C   0  0  1  0  0  0  0  0  0  0  0  0
   17.7623   38.8322   -6.2956 C   0  0  0  0  0  0  0  0  0  0  0  0
   16.8124   39.8052   -6.8400 N   0  3  0  0  0  0  0  0  0  0  0  0
   15.4535   39.3615   -7.1607 C   0  0  0  0  0  0  0  0  0  0  0  0
   15.0852   40.1435   -8.3976 C   0  0  0  0  0  0  0  0  0  0  0  0
   15.0249   39.5052   -9.6503 C   0  0  0  0  0  0  0  0  0  0  0  0
   14.7059   40.2507  -10.7985 C   0  0  0  0  0  0  0  0  0  0  0  0
   14.4374   41.6312  -10.6974 C   0  0  0  0  0  0  0  0  0  0  0  0
   14.4997   42.2790   -9.4458 C   0  0  0  0  0  0  0  0  0  0  0  0
   14.8600   41.5327   -8.3033 C   0  0  0  0  0  0  0  0  0  0  0  0
   14.1024   43.7467   -9.3208 C   0  0  0  0  0  0  0  0  0  0  0  0
   15.2170   44.6164   -8.7231 C   0  0  0  0  0  0  0  0  0  0  0  0
   12.7942   43.9044   -8.5288 C   0  0  0  0  0  0  0  0  0  0  0  0
   17.6603   37.2554   -8.0624 O   0  0  0  0  0  0  0  0  0  0  0  0
   22.7684   41.0269   -6.7226 H   0  0  0  0  0  0  0  0  0  0  0  0
   18.4713   39.6269   -8.9462 H   0  0  0  0  0  0  0  0  0  0  0  0
   19.3157   37.5471   -6.9194 H   0  0  0  0  0  0  0  0  0  0  0  0
   22.3361   40.4221   -4.4080 H   0  0  0  0  0  0  0  0  0  0  0  0
   21.0433   41.6098   -4.3076 H   0  0  0  0  0  0  0  0  0  0  0  0
   22.7071   42.1312   -4.5407 H   0  0  0  0  0  0  0  0  0  0  0  0
   19.7814   41.1411   -7.9921 H   0  0  0  0  0  0  0  0  0  0  0  0
   20.9618   37.8782   -8.9764 H   0  0  0  0  0  0  0  0  0  0  0  0
   19.5718   37.7103  -10.0188 H   0  0  0  0  0  0  0  0  0  0  0  0
   19.0887   39.3473  -11.8035 H   0  0  0  0  0  0  0  0  0  0  0  0
   19.9355   41.1817  -13.2409 H   0  0  0  0  0  0  0  0  0  0  0  0
   22.0001   42.3901  -12.6325 H   0  0  0  0  0  0  0  0  0  0  0  0
   22.4938   39.8353   -9.2043 H   0  0  0  0  0  0  0  0  0  0  0  0
   24.4365   42.5502  -12.0730 H   0  0  0  0  0  0  0  0  0  0  0  0
   23.2651   43.6776  -11.4014 H   0  0  0  0  0  0  0  0  0  0  0  0
   25.8188   42.9198   -9.8913 H   0  0  0  0  0  0  0  0  0  0  0  0
   25.7838   44.1603  -11.1055 H   0  0  0  0  0  0  0  0  0  0  0  0
   25.3151   45.5914   -9.4829 H   0  0  0  0  0  0  0  0  0  0  0  0
   23.6795   45.0665   -9.6226 H   0  0  0  0  0  0  0  0  0  0  0  0
   25.7802   44.0276   -7.6443 H   0  0  0  0  0  0  0  0  0  0  0  0
   24.5661   45.2058   -7.2658 H   0  0  0  0  0  0  0  0  0  0  0  0
   23.9934   42.2969   -7.9960 H   0  0  0  0  0  0  0  0  0  0  0  0
   24.0935   42.9501   -6.3768 H   0  0  0  0  0  0  0  0  0  0  0  0
   19.5044   43.0508   -7.7012 H   0  0  0  0  0  0  0  0  0  0  0  0
   19.9447   44.0491   -6.3138 H   0  0  0  0  0  0  0  0  0  0  0  0
   19.4719   42.3956   -6.0575 H   0  0  0  0  0  0  0  0  0  0  0  0
   17.2599   38.1497   -5.6373 H   0  0  0  0  0  0  0  0  0  0  0  0
   18.4653   39.3499   -5.6456 H   0  0  0  0  0  0  0  0  0  0  0  0
   16.7426   40.5532   -6.1559 H   0  0  0  0  0  0  0  0  0  0  0  0
   15.3927   38.2883   -7.3516 H   0  0  0  0  0  0  0  0  0  0  0  0
   14.7786   39.5863   -6.3326 H   0  0  0  0  0  0  0  0  0  0  0  0
   15.2109   38.4437   -9.7357 H   0  0  0  0  0  0  0  0  0  0  0  0
   14.6282   39.7516  -11.7500 H   0  0  0  0  0  0  0  0  0  0  0  0
   14.1491   42.1850  -11.5781 H   0  0  0  0  0  0  0  0  0  0  0  0
   14.8947   42.0115   -7.3339 H   0  0  0  0  0  0  0  0  0  0  0  0
   13.9138   44.1233  -10.3273 H   0  0  0  0  0  0  0  0  0  0  0  0
   16.1112   44.5991   -9.3477 H   0  0  0  0  0  0  0  0  0  0  0  0
   15.5043   44.2877   -7.7247 H   0  0  0  0  0  0  0  0  0  0  0  0
   14.8804   45.6504   -8.6407 H   0  0  0  0  0  0  0  0  0  0  0  0
   11.9838   43.3394   -8.9879 H   0  0  0  0  0  0  0  0  0  0  0  0
   12.4751   44.9439   -8.4916 H   0  0  0  0  0  0  0  0  0  0  0  0
   12.9003   43.5577   -7.5010 H   0  0  0  0  0  0  0  0  0  0  0  0
   17.1344   36.8041   -7.4002 H   0  0  0  0  0  0  0  0  0  0  0  0
   17.2122   40.1907   -7.6800 H   0  0  0  0  0  0  0  0  0  0  0  0
  1  2  1  0  0  0  0
  1 41  1  0  0  0  0
  1 42  1  0  0  0  0
  1 43  1  0  0  0  0
  2 38  1  6  0  0  0
  2 22  1  0  0  0  0
  2  3  1  0  0  0  0
  3  4  2  0  0  0  0
  3  5  1  0  0  0  0
  5  6  1  0  0  0  0
  5 44  1  0  0  0  0
  6 39  1  6  0  0  0
  6  7  1  0  0  0  0
  6 24  1  0  0  0  0
  7  8  1  0  0  0  0
  7 45  1  0  0  0  0
  7 46  1  0  0  0  0
  8 13  1  0  0  0  0
  8  9  2  0  0  0  0
  9 10  1  0  0  0  0
  9 47  1  0  0  0  0
 10 11  2  0  0  0  0
 10 48  1  0  0  0  0
 11 12  1  0  0  0  0
 11 49  1  0  0  0  0
 12 13  2  0  0  0  0
 12 14  1  0  0  0  0
 13 50  1  0  0  0  0
 14 15  1  0  0  0  0
 15 16  1  0  0  0  0
 15 51  1  0  0  0  0
 15 52  1  0  0  0  0
 16 17  1  0  0  0  0
 16 53  1  0  0  0  0
 16 54  1  0  0  0  0
 17 18  1  0  0  0  0
 17 55  1  0  0  0  0
 17 56  1  0  0  0  0
 18 19  1  0  0  0  0
 18 57  1  0  0  0  0
 18 58  1  0  0  0  0
 19 20  1  0  0  0  0
 19 59  1  0  0  0  0
 19 60  1  0  0  0  0
 20 21  2  0  0  0  0
 20 22  1  0  0  0  0
 22 23  1  0  0  0  0
 23 61  1  0  0  0  0
 23 62  1  0  0  0  0
 23 63  1  0  0  0  0
 24 40  1  1  0  0  0
 24 25  1  0  0  0  0
 24 37  1  0  0  0  0
 25 26  1  0  0  0  0
 25 64  1  0  0  0  0
 25 65  1  0  0  0  0
 26 27  1  0  0  0  0
 26 66  1  0  0  0  0
 26 81  1  0  0  0  0
 27 28  1  0  0  0  0
 27 67  1  0  0  0  0
 27 68  1  0  0  0  0
 28 33  1  0  0  0  0
 28 29  2  0  0  0  0
 29 30  1  0  0  0  0
 29 69  1  0  0  0  0
 30 31  2  0  0  0  0
 30 70  1  0  0  0  0
 31 32  1  0  0  0  0
 31 71  1  0  0  0  0
 32 33  2  0  0  0  0
 32 34  1  0  0  0  0
 33 72  1  0  0  0  0
 34 35  1  0  0  0  0
 34 36  1  0  0  0  0
 34 73  1  0  0  0  0
 35 74  1  0  0  0  0
 35 75  1  0  0  0  0
 35 76  1  0  0  0  0
 36 77  1  0  0  0  0
 36 78  1  0  0  0  0
 36 79  1  0  0  0  0
 37 80  1  0  0  0  0
M  CHG  1  26   1
M  END
>  <s_m_source_file>
BACE_11.smi

>  <i_m_source_file_index>
1

>  <i_lp_mmshare_version>
42013

>  <i_f3d_flags>
0

>  <s_epik_input>
YzEyW2NIXVtjSF1bY0hdYyhbY0hdMilPW0NIMl1bQ0gyXVtDSDJdW0NIMl1bQ0gyXUMoPU8pTihbQ0gzXSlbQ0BASF0oW0NIM10pQyg9TylbTkhdW0NAQEhdKFtDSDJdMSlbQ0BIXShbT0hdKVtDSDJdW05IXVtDSDJdYzNbY0hdW2NIXVtjSF1jKFtjSF0zKVtDSF0oW0NIM10pW0NIM10=

>  <s_epik_cmdline>
J2VwaWtfcHl0aG9uJywgJy1waCcsICc3LjAnLCAnLXRuJywgJzgnLCAnLW1hJywgJzIwMCcsICctaW1hZScsICc8aW5maWxlLm1hZT4nLCAnLW9tYWUnLCAnPG91dGZpbGUubWFlPic=

>  <r_lp_tautomer_probability>
1

>  <r_epik_Ionization_Penalty>
0.021

>  <r_epik_Ionization_Penalty_Charging>
0.021

>  <r_epik_Ionization_Penalty_Neutral>
0

>  <r_epik_State_Penalty>
0.0169

>  <r_epik_Charging_Adjusted_Penalty>
0.0378979

>  <i_epik_Tot_Q>
1

>  <i_epik_Tot_abs_Q>
1

>  <s_lp_Force_Field>
OPLS_2005

>  <r_lp_Energy>
36.6322

>  <b_lp_Chiralities_Consistent>
1

>  <s_lp_Variant>
BACE_11.smi:1-1

>  <chiral flag>
1

>  <version>
0

>  <r_i_glide_lipo>
-0.730831

>  <r_i_glide_hbond>
-0.32

>  <r_i_glide_metal>
-0

>  <r_i_glide_rewards>
-0.348713

>  <r_i_glide_erotb>
0.39279

>  <r_i_glide_esite>
-0.036294

>  <s_i_glide_gridfile>
second_dock_grid_2

>  <i_i_glide_lignum>
22

>  <i_i_glide_rotatable_bonds>
7

>  <r_i_docking_score>
-4.97431

>  <r_i_glide_ligand_efficiency>
-0.134441

>  <r_i_glide_ligand_efficiency_sa>
-0.447986

>  <r_i_glide_ligand_efficiency_ln>
-1.07881

>  <r_glide_XP_GScore>
-4.99121

>  <r_i_glide_gscore>
-4.99121

>  <r_i_glide_evdw>
-38.4469

>  <r_i_glide_ecoul>
-10.7221

>  <r_i_glide_energy>
-49.169

>  <r_i_glide_einternal>
3.91937

>  <r_i_glide_emodel>
-54.9145

>  <r_glide_XP_HBond>
-0.319272

>  <i_i_glide_confnum>
1

>  <i_i_glide_posenum>
15

>  <r_i_glide_eff_state_penalty>
0.0169

>  <i_glide_XP_PoseRank>
5

>  <chiral flag>
1

$$$$
