BACE_3.smi:1
 OpenBabel10031817133D
Structure written by MMmdl.
 85 86  0  0  1  0  0  0  0  0999 V2000
   21.6644   39.3113   -8.4748 C   0  0  0  0  0  0  0  0  0  0  0  0
   22.7076   40.2543   -8.4771 C   0  0  0  0  0  0  0  0  0  0  0  0
   22.8579   41.1402   -7.3948 C   0  0  0  0  0  0  0  0  0  0  0  0
   21.9734   41.0842   -6.2970 C   0  0  0  0  0  0  0  0  0  0  0  0
   22.1650   42.0242   -5.1132 C   0  0  0  0  0  0  0  0  0  0  0  0
   20.9128   42.8761   -4.8433 C   0  0  0  0  0  0  0  0  0  0  0  0
   22.6030   41.2557   -3.8590 C   0  0  0  0  0  0  0  0  0  0  0  0
   20.9245   40.1402   -6.3036 C   0  0  0  0  0  0  0  0  0  0  0  0
   20.7655   39.2586   -7.3912 C   0  0  0  0  0  0  0  0  0  0  0  0
   19.6356   38.2531   -7.4023 C   0  0  0  0  0  0  0  0  0  0  0  0
   18.3511   38.8656   -7.7020 N   0  0  0  0  0  0  0  0  0  0  0  0
   17.4487   37.9816   -8.4402 C   0  0  0  0  0  0  0  0  0  0  0  0
   16.0260   38.5761   -8.5451 C   0  0  0  0  0  0  0  0  0  0  0  0
   15.4923   38.5500   -7.2403 O   0  0  0  0  0  0  0  0  0  0  0  0
   15.2794   37.7536   -9.4111 O   0  0  0  0  0  0  0  0  0  0  0  0
   15.9415   40.0395   -9.0704 C   0  0  1  0  0  0  0  0  0  0  0  0
   16.8270   40.2513  -10.2207 N   0  0  0  0  0  0  0  0  0  0  0  0
   17.8121   41.1622  -10.2843 C   0  0  0  0  0  0  0  0  0  0  0  0
   18.0950   41.9124   -9.3506 O   0  0  0  0  0  0  0  0  0  0  0  0
   18.5595   41.2724  -11.6285 C   0  0  2  0  0  0  0  0  0  0  0  0
   19.6615   40.1900  -11.6709 C   0  0  0  0  0  0  0  0  0  0  0  0
   14.4854   40.4964   -9.3697 C   0  0  0  0  0  0  0  0  0  0  0  0
   14.1964   42.0109   -9.5632 C   0  0  2  0  0  0  0  0  0  0  0  0
   14.6980   42.5368  -10.9164 C   0  0  0  0  0  0  0  0  0  0  0  0
   14.5714   42.8699   -8.3263 C   0  0  0  0  0  0  0  0  0  0  0  0
   14.6248   44.3974   -8.5295 C   0  0  0  0  0  0  0  0  0  0  0  0
   16.0707   44.8755   -8.7365 C   0  0  0  0  0  0  0  0  0  0  0  0
   16.1828   46.3415   -9.1696 C   0  0  0  0  0  0  0  0  0  0  0  0
   17.6339   46.8457   -9.2849 C   0  0  0  0  0  0  0  0  0  0  0  0
   18.5301   46.0185  -10.2214 C   0  0  0  0  0  0  0  0  0  0  0  0
   18.0857   46.0364  -11.6944 C   0  0  0  0  0  0  0  0  0  0  0  0
   18.8592   45.0430  -12.5772 C   0  0  0  0  0  0  0  0  0  0  0  0
   18.3595   43.5951  -12.4260 C   0  0  0  0  0  0  0  0  0  0  0  0
   17.2606   43.3474  -12.9235 O   0  0  0  0  0  0  0  0  0  0  0  0
   19.1089   42.6434  -11.8019 N   0  0  0  0  0  0  0  0  0  0  0  0
   20.4011   42.9480  -11.1564 C   0  0  0  0  0  0  0  0  0  0  0  0
   16.3137   40.6412   -8.2427 H   0  0  0  0  0  0  0  0  0  0  0  0
   17.8631   41.0379  -12.4371 H   0  0  0  0  0  0  0  0  0  0  0  0
   13.1111   42.0812   -9.6436 H   0  0  0  0  0  0  0  0  0  0  0  0
   21.5548   38.6357   -9.3093 H   0  0  0  0  0  0  0  0  0  0  0  0
   23.3974   40.2920   -9.3096 H   0  0  0  0  0  0  0  0  0  0  0  0
   23.6626   41.8594   -7.4081 H   0  0  0  0  0  0  0  0  0  0  0  0
   22.9713   42.7130   -5.3661 H   0  0  0  0  0  0  0  0  0  0  0  0
   20.6245   43.4386   -5.7296 H   0  0  0  0  0  0  0  0  0  0  0  0
   21.0941   43.5917   -4.0413 H   0  0  0  0  0  0  0  0  0  0  0  0
   20.0601   42.2628   -4.5481 H   0  0  0  0  0  0  0  0  0  0  0  0
   23.5294   40.7091   -4.0372 H   0  0  0  0  0  0  0  0  0  0  0  0
   21.8501   40.5349   -3.5421 H   0  0  0  0  0  0  0  0  0  0  0  0
   22.7780   41.9356   -3.0235 H   0  0  0  0  0  0  0  0  0  0  0  0
   20.2364   40.0896   -5.4731 H   0  0  0  0  0  0  0  0  0  0  0  0
   19.5881   37.7492   -6.4386 H   0  0  0  0  0  0  0  0  0  0  0  0
   19.8739   37.4936   -8.1472 H   0  0  0  0  0  0  0  0  0  0  0  0
   17.8835   39.1140   -6.8338 H   0  0  0  0  0  0  0  0  0  0  0  0
   17.3995   37.0039   -7.9583 H   0  0  0  0  0  0  0  0  0  0  0  0
   17.8484   37.8086   -9.4398 H   0  0  0  0  0  0  0  0  0  0  0  0
   15.6598   37.6906   -6.8333 H   0  0  0  0  0  0  0  0  0  0  0  0
   14.3944   38.0923   -9.4158 H   0  0  0  0  0  0  0  0  0  0  0  0
   16.6818   39.6474  -11.0154 H   0  0  0  0  0  0  0  0  0  0  0  0
   19.2209   39.1936  -11.6826 H   0  0  0  0  0  0  0  0  0  0  0  0
   20.3279   40.2187  -10.8100 H   0  0  0  0  0  0  0  0  0  0  0  0
   20.2696   40.2832  -12.5712 H   0  0  0  0  0  0  0  0  0  0  0  0
   14.1006   39.9547  -10.2338 H   0  0  0  0  0  0  0  0  0  0  0  0
   13.8816   40.1480   -8.5375 H   0  0  0  0  0  0  0  0  0  0  0  0
   14.1553   43.4234  -11.2362 H   0  0  0  0  0  0  0  0  0  0  0  0
   14.5628   41.7826  -11.6817 H   0  0  0  0  0  0  0  0  0  0  0  0
   15.7473   42.7955  -10.8912 H   0  0  0  0  0  0  0  0  0  0  0  0
   13.8423   42.6590   -7.5470 H   0  0  0  0  0  0  0  0  0  0  0  0
   15.5193   42.5579   -7.8933 H   0  0  0  0  0  0  0  0  0  0  0  0
   14.2305   44.8893   -7.6403 H   0  0  0  0  0  0  0  0  0  0  0  0
   13.9782   44.6997   -9.3512 H   0  0  0  0  0  0  0  0  0  0  0  0
   16.6311   44.7227   -7.8124 H   0  0  0  0  0  0  0  0  0  0  0  0
   16.5496   44.2469   -9.4819 H   0  0  0  0  0  0  0  0  0  0  0  0
   15.6605   46.9519   -8.4405 H   0  0  0  0  0  0  0  0  0  0  0  0
   15.6641   46.4897  -10.1158 H   0  0  0  0  0  0  0  0  0  0  0  0
   17.6284   47.8843   -9.6171 H   0  0  0  0  0  0  0  0  0  0  0  0
   18.0810   46.8502   -8.2899 H   0  0  0  0  0  0  0  0  0  0  0  0
   18.5897   44.9953   -9.8530 H   0  0  0  0  0  0  0  0  0  0  0  0
   19.5496   46.4030  -10.1625 H   0  0  0  0  0  0  0  0  0  0  0  0
   17.0205   45.8255  -11.7754 H   0  0  0  0  0  0  0  0  0  0  0  0
   18.2191   47.0435  -12.0882 H   0  0  0  0  0  0  0  0  0  0  0  0
   19.9316   45.1532  -12.4358 H   0  0  0  0  0  0  0  0  0  0  0  0
   18.6760   45.3195  -13.6146 H   0  0  0  0  0  0  0  0  0  0  0  0
   20.5774   42.3163  -10.2873 H   0  0  0  0  0  0  0  0  0  0  0  0
   20.4703   43.9588  -10.7652 H   0  0  0  0  0  0  0  0  0  0  0  0
   21.2282   42.7910  -11.8482 H   0  0  0  0  0  0  0  0  0  0  0  0
  1  9  1  0  0  0  0
  1  2  2  0  0  0  0
  1 40  1  0  0  0  0
  2  3  1  0  0  0  0
  2 41  1  0  0  0  0
  3  4  2  0  0  0  0
  3 42  1  0  0  0  0
  4  5  1  0  0  0  0
  4  8  1  0  0  0  0
  5  6  1  0  0  0  0
  5  7  1  0  0  0  0
  5 43  1  0  0  0  0
  6 44  1  0  0  0  0
  6 45  1  0  0  0  0
  6 46  1  0  0  0  0
  7 47  1  0  0  0  0
  7 48  1  0  0  0  0
  7 49  1  0  0  0  0
  8  9  2  0  0  0  0
  8 50  1  0  0  0  0
  9 10  1  0  0  0  0
 10 11  1  0  0  0  0
 10 51  1  0  0  0  0
 10 52  1  0  0  0  0
 11 12  1  0  0  0  0
 11 53  1  0  0  0  0
 12 13  1  0  0  0  0
 12 54  1  0  0  0  0
 12 55  1  0  0  0  0
 13 14  1  0  0  0  0
 13 15  1  0  0  0  0
 13 16  1  0  0  0  0
 14 56  1  0  0  0  0
 15 57  1  0  0  0  0
 16 37  1  1  0  0  0
 16 17  1  0  0  0  0
 16 22  1  0  0  0  0
 17 18  1  0  0  0  0
 17 58  1  0  0  0  0
 18 19  2  0  0  0  0
 18 20  1  0  0  0  0
 20 38  1  6  0  0  0
 20 35  1  0  0  0  0
 20 21  1  0  0  0  0
 21 59  1  0  0  0  0
 21 60  1  0  0  0  0
 21 61  1  0  0  0  0
 22 23  1  0  0  0  0
 22 62  1  0  0  0  0
 22 63  1  0  0  0  0
 23 39  1  6  0  0  0
 23 24  1  0  0  0  0
 23 25  1  0  0  0  0
 24 64  1  0  0  0  0
 24 65  1  0  0  0  0
 24 66  1  0  0  0  0
 25 26  1  0  0  0  0
 25 67  1  0  0  0  0
 25 68  1  0  0  0  0
 26 27  1  0  0  0  0
 26 69  1  0  0  0  0
 26 70  1  0  0  0  0
 27 28  1  0  0  0  0
 27 71  1  0  0  0  0
 27 72  1  0  0  0  0
 28 29  1  0  0  0  0
 28 73  1  0  0  0  0
 28 74  1  0  0  0  0
 29 30  1  0  0  0  0
 29 75  1  0  0  0  0
 29 76  1  0  0  0  0
 30 31  1  0  0  0  0
 30 77  1  0  0  0  0
 30 78  1  0  0  0  0
 31 32  1  0  0  0  0
 31 79  1  0  0  0  0
 31 80  1  0  0  0  0
 32 33  1  0  0  0  0
 32 81  1  0  0  0  0
 32 82  1  0  0  0  0
 33 34  2  0  0  0  0
 33 35  1  0  0  0  0
 35 36  1  0  0  0  0
 36 83  1  0  0  0  0
 36 84  1  0  0  0  0
 36 85  1  0  0  0  0
M  END
>  <s_m_source_file>
BACE_3.smi

>  <i_m_source_file_index>
1

>  <i_lp_mmshare_version>
42013

>  <i_f3d_flags>
0

>  <s_epik_input>
W0NIM11bQ0hdKFtDSDNdKWMxW2NIXVtjSF1bY0hdYyhbY0hdMSlbQ0gyXVtOSF1bQ0gyXUMoW09IXSkoW09IXSlbQ0BIXTJbTkhdQyg9TylbQ0BIXShbQ0gzXSlOKFtDSDNdKUMoPU8pW0NIMl1bQ0gyXVtDSDJdW0NIMl1bQ0gyXVtDSDJdW0NIMl1bQ0gyXVtDQEhdKFtDSDJdMilbQ0gzXQ==

>  <s_epik_cmdline>
J2VwaWtfcHl0aG9uJywgJy1waCcsICc3LjAnLCAnLXRuJywgJzgnLCAnLW1hJywgJzIwMCcsICctaW1hZScsICc8aW5maWxlLm1hZT4nLCAnLW9tYWUnLCAnPG91dGZpbGUubWFlPic=

>  <r_epik_Ionization_Penalty>
2.074

>  <r_epik_Ionization_Penalty_Charging>
0

>  <r_epik_Ionization_Penalty_Neutral>
2.074

>  <r_epik_State_Penalty>
2.2081

>  <r_epik_Charging_Adjusted_Penalty>
2.20813

>  <i_epik_Tot_Q>
0

>  <i_epik_Tot_abs_Q>
0

>  <s_lp_Force_Field>
OPLS_2005

>  <r_lp_Energy>
49.929

>  <b_lp_Chiralities_Consistent>
1

>  <s_lp_Variant>
BACE_3.smi:1-2

>  <chiral flag>
1

>  <version>
0

>  <r_i_glide_lipo>
-0.428916

>  <r_i_glide_hbond>
-0.0522614

>  <r_i_glide_metal>
-0

>  <r_i_glide_rewards>
-0.0327321

>  <r_i_glide_erotb>
0.402825

>  <r_i_glide_esite>
-0.0410514

>  <s_i_glide_gridfile>
second_dock_grid_2

>  <i_i_glide_lignum>
5

>  <i_i_glide_rotatable_bonds>
8

>  <r_i_docking_score>
-2.46649

>  <r_i_glide_ligand_efficiency>
-0.0685136

>  <r_i_glide_ligand_efficiency_sa>
-0.226227

>  <r_i_glide_ligand_efficiency_ln>
-0.538121

>  <r_glide_XP_GScore>
-4.67459

>  <r_i_glide_gscore>
-4.67459

>  <r_i_glide_evdw>
-38.1475

>  <r_i_glide_ecoul>
-10.5298

>  <r_i_glide_energy>
-48.6773

>  <r_i_glide_einternal>
2.22945

>  <r_i_glide_emodel>
-61.3838

>  <r_glide_XP_HBond>
-1.625

>  <i_i_glide_confnum>
1

>  <i_i_glide_posenum>
2

>  <r_i_glide_eff_state_penalty>
2.2081

>  <i_glide_XP_PoseRank>
1

>  <chiral flag>
1

$$$$
