BACE_6.smi:1
 OpenBabel10031817133D
Structure written by MMmdl.
 83 85  0  0  1  0  0  0  0  0999 V2000
   16.6517   52.1024   -9.9256 C   0  0  0  0  0  0  0  0  0  0  0  0
   17.8252   51.2501  -10.4330 C   0  0  0  0  0  0  0  0  0  0  0  0
   17.6746   49.8344  -10.0540 N   0  0  0  0  0  0  0  0  0  0  0  0
   16.9423   49.0407  -11.0614 C   0  0  0  0  0  0  0  0  0  0  0  0
   17.7722   47.9608  -11.7881 C   0  0  0  0  0  0  0  0  0  0  0  0
   17.0414   47.3773  -13.0176 C   0  0  0  0  0  0  0  0  0  0  0  0
   15.7036   46.6625  -12.7296 C   0  0  0  0  0  0  0  0  0  0  0  0
   15.8561   45.2210  -12.2117 C   0  0  0  0  0  0  0  0  0  0  0  0
   14.5399   44.5740  -11.7051 C   0  0  2  0  0  0  0  0  0  0  0  0
   14.7770   43.1287  -11.1859 C   0  0  0  0  0  0  0  0  0  0  0  0
   14.8772   42.9929   -9.6474 C   0  0  2  0  0  0  0  0  0  0  0  0
   15.9650   43.8316   -9.1567 N   0  0  0  0  0  0  0  0  0  0  0  0
   15.8064   44.9492   -8.4404 C   0  0  0  0  0  0  0  0  0  0  0  0
   14.7151   45.3500   -8.0372 O   0  0  0  0  0  0  0  0  0  0  0  0
   17.0494   45.7657   -8.2842 C   0  0  0  0  0  0  0  0  0  0  0  0
   18.2715   45.1717   -7.9037 C   0  0  0  0  0  0  0  0  0  0  0  0
   19.4332   45.9619   -7.8091 C   0  0  0  0  0  0  0  0  0  0  0  0
   19.3821   47.3359   -8.1177 C   0  0  0  0  0  0  0  0  0  0  0  0
   18.1700   47.9381   -8.5199 C   0  0  0  0  0  0  0  0  0  0  0  0
   17.0012   47.1489   -8.5469 C   0  0  0  0  0  0  0  0  0  0  0  0
   18.1448   49.4082   -8.8469 C   0  0  0  0  0  0  0  0  0  0  0  0
   18.6242   50.1867   -8.0186 O   0  0  0  0  0  0  0  0  0  0  0  0
   15.1109   41.5431   -9.1777 C   0  0  1  0  0  0  0  0  0  0  0  0
   15.2576   41.4349   -7.6399 C   0  0  0  0  0  0  0  0  0  0  0  0
   14.9688   40.1109   -7.0362 N   0  3  0  0  0  0  0  0  0  0  0  0
   15.6252   38.9077   -7.5924 C   0  0  0  0  0  0  0  0  0  0  0  0
   17.1147   39.0463   -7.8711 C   0  0  0  0  0  0  0  0  0  0  0  0
   18.0523   38.9500   -6.8254 C   0  0  0  0  0  0  0  0  0  0  0  0
   19.4218   39.1516   -7.0797 C   0  0  0  0  0  0  0  0  0  0  0  0
   19.8601   39.4601   -8.3822 C   0  0  0  0  0  0  0  0  0  0  0  0
   18.9324   39.5284   -9.4446 C   0  0  0  0  0  0  0  0  0  0  0  0
   17.5710   39.2676   -9.1872 C   0  0  0  0  0  0  0  0  0  0  0  0
   19.3708   39.9083  -10.8520 C   0  0  0  0  0  0  0  0  0  0  0  0
   20.4360   38.9499  -11.3870 C   0  0  0  0  0  0  0  0  0  0  0  0
   19.8304   41.3731  -10.9228 C   0  0  0  0  0  0  0  0  0  0  0  0
   14.0599   40.7273   -9.6399 O   0  0  0  0  0  0  0  0  0  0  0  0
   13.3998   44.5996  -12.7436 C   0  0  0  0  0  0  0  0  0  0  0  0
   14.1815   45.1782  -10.8719 H   0  0  0  0  0  0  0  0  0  0  0  0
   13.9260   43.3237   -9.2270 H   0  0  0  0  0  0  0  0  0  0  0  0
   16.0205   41.2079   -9.6613 H   0  0  0  0  0  0  0  0  0  0  0  0
   16.7804   53.1454  -10.2151 H   0  0  0  0  0  0  0  0  0  0  0  0
   16.5779   52.0722   -8.8407 H   0  0  0  0  0  0  0  0  0  0  0  0
   15.7026   51.7630  -10.3380 H   0  0  0  0  0  0  0  0  0  0  0  0
   17.9128   51.3486  -11.5153 H   0  0  0  0  0  0  0  0  0  0  0  0
   18.7633   51.6556  -10.0488 H   0  0  0  0  0  0  0  0  0  0  0  0
   16.0610   48.6055  -10.6031 H   0  0  0  0  0  0  0  0  0  0  0  0
   16.5273   49.7058  -11.8202 H   0  0  0  0  0  0  0  0  0  0  0  0
   18.7112   48.4034  -12.1243 H   0  0  0  0  0  0  0  0  0  0  0  0
   18.0488   47.1534  -11.1128 H   0  0  0  0  0  0  0  0  0  0  0  0
   16.8520   48.1941  -13.7154 H   0  0  0  0  0  0  0  0  0  0  0  0
   17.7087   46.6988  -13.5510 H   0  0  0  0  0  0  0  0  0  0  0  0
   15.0924   47.2436  -12.0427 H   0  0  0  0  0  0  0  0  0  0  0  0
   15.1401   46.6362  -13.6605 H   0  0  0  0  0  0  0  0  0  0  0  0
   16.3026   44.6067  -12.9940 H   0  0  0  0  0  0  0  0  0  0  0  0
   16.5805   45.2265  -11.3975 H   0  0  0  0  0  0  0  0  0  0  0  0
   13.9586   42.4933  -11.5246 H   0  0  0  0  0  0  0  0  0  0  0  0
   15.6723   42.7028  -11.6408 H   0  0  0  0  0  0  0  0  0  0  0  0
   16.8998   43.6028   -9.4618 H   0  0  0  0  0  0  0  0  0  0  0  0
   18.3274   44.1151   -7.6797 H   0  0  0  0  0  0  0  0  0  0  0  0
   20.3677   45.5096   -7.5126 H   0  0  0  0  0  0  0  0  0  0  0  0
   20.2859   47.9256   -8.0566 H   0  0  0  0  0  0  0  0  0  0  0  0
   16.0596   47.5986   -8.7978 H   0  0  0  0  0  0  0  0  0  0  0  0
   16.2484   41.7643   -7.3228 H   0  0  0  0  0  0  0  0  0  0  0  0
   14.5477   42.1352   -7.2062 H   0  0  0  0  0  0  0  0  0  0  0  0
   15.1837   40.1719   -6.0476 H   0  0  0  0  0  0  0  0  0  0  0  0
   15.4601   38.1500   -6.8402 H   0  0  0  0  0  0  0  0  0  0  0  0
   15.1063   38.5762   -8.4923 H   0  0  0  0  0  0  0  0  0  0  0  0
   17.7183   38.7448   -5.8180 H   0  0  0  0  0  0  0  0  0  0  0  0
   20.1334   39.0924   -6.2693 H   0  0  0  0  0  0  0  0  0  0  0  0
   20.9095   39.6464   -8.5583 H   0  0  0  0  0  0  0  0  0  0  0  0
   16.8645   39.2784  -10.0037 H   0  0  0  0  0  0  0  0  0  0  0  0
   18.5054   39.8126  -11.5102 H   0  0  0  0  0  0  0  0  0  0  0  0
   20.0592   37.9304  -11.3268 H   0  0  0  0  0  0  0  0  0  0  0  0
   21.3593   39.0022  -10.8127 H   0  0  0  0  0  0  0  0  0  0  0  0
   20.6779   39.1623  -12.4282 H   0  0  0  0  0  0  0  0  0  0  0  0
   19.0384   42.0475  -10.5903 H   0  0  0  0  0  0  0  0  0  0  0  0
   20.0965   41.6515  -11.9422 H   0  0  0  0  0  0  0  0  0  0  0  0
   20.7037   41.5506  -10.2936 H   0  0  0  0  0  0  0  0  0  0  0  0
   13.2495   40.9499   -9.1826 H   0  0  0  0  0  0  0  0  0  0  0  0
   13.6358   44.0161  -13.6333 H   0  0  0  0  0  0  0  0  0  0  0  0
   13.1578   45.6122  -13.0613 H   0  0  0  0  0  0  0  0  0  0  0  0
   12.4851   44.1815  -12.3218 H   0  0  0  0  0  0  0  0  0  0  0  0
   13.9724   39.9542   -7.0968 H   0  0  0  0  0  0  0  0  0  0  0  0
  1  2  1  0  0  0  0
  1 41  1  0  0  0  0
  1 42  1  0  0  0  0
  1 43  1  0  0  0  0
  2  3  1  0  0  0  0
  2 44  1  0  0  0  0
  2 45  1  0  0  0  0
  3 21  1  0  0  0  0
  3  4  1  0  0  0  0
  4  5  1  0  0  0  0
  4 46  1  0  0  0  0
  4 47  1  0  0  0  0
  5  6  1  0  0  0  0
  5 48  1  0  0  0  0
  5 49  1  0  0  0  0
  6  7  1  0  0  0  0
  6 50  1  0  0  0  0
  6 51  1  0  0  0  0
  7  8  1  0  0  0  0
  7 52  1  0  0  0  0
  7 53  1  0  0  0  0
  8  9  1  0  0  0  0
  8 54  1  0  0  0  0
  8 55  1  0  0  0  0
  9 38  1  1  0  0  0
  9 10  1  0  0  0  0
  9 37  1  0  0  0  0
 10 11  1  0  0  0  0
 10 56  1  0  0  0  0
 10 57  1  0  0  0  0
 11 39  1  1  0  0  0
 11 12  1  0  0  0  0
 11 23  1  0  0  0  0
 12 13  1  0  0  0  0
 12 58  1  0  0  0  0
 13 14  2  0  0  0  0
 13 15  1  0  0  0  0
 15 20  1  0  0  0  0
 15 16  2  0  0  0  0
 16 17  1  0  0  0  0
 16 59  1  0  0  0  0
 17 18  2  0  0  0  0
 17 60  1  0  0  0  0
 18 19  1  0  0  0  0
 18 61  1  0  0  0  0
 19 20  2  0  0  0  0
 19 21  1  0  0  0  0
 20 62  1  0  0  0  0
 21 22  2  0  0  0  0
 23 40  1  6  0  0  0
 23 24  1  0  0  0  0
 23 36  1  0  0  0  0
 24 25  1  0  0  0  0
 24 63  1  0  0  0  0
 24 64  1  0  0  0  0
 25 26  1  0  0  0  0
 25 65  1  0  0  0  0
 25 83  1  0  0  0  0
 26 27  1  0  0  0  0
 26 66  1  0  0  0  0
 26 67  1  0  0  0  0
 27 32  1  0  0  0  0
 27 28  2  0  0  0  0
 28 29  1  0  0  0  0
 28 68  1  0  0  0  0
 29 30  2  0  0  0  0
 29 69  1  0  0  0  0
 30 31  1  0  0  0  0
 30 70  1  0  0  0  0
 31 32  2  0  0  0  0
 31 33  1  0  0  0  0
 32 71  1  0  0  0  0
 33 34  1  0  0  0  0
 33 35  1  0  0  0  0
 33 72  1  0  0  0  0
 34 73  1  0  0  0  0
 34 74  1  0  0  0  0
 34 75  1  0  0  0  0
 35 76  1  0  0  0  0
 35 77  1  0  0  0  0
 35 78  1  0  0  0  0
 36 79  1  0  0  0  0
 37 80  1  0  0  0  0
 37 81  1  0  0  0  0
 37 82  1  0  0  0  0
M  CHG  1  25   1
M  END
>  <s_m_source_file>
BACE_6.smi

>  <i_m_source_file_index>
1

>  <i_lp_mmshare_version>
42013

>  <i_f3d_flags>
0

>  <s_epik_input>
YzEyW2NIXVtjSF1bY0hdYyhbY0hdMilDKD1PKU4oW0NIMl1bQ0gzXSlbQ0gyXVtDSDJdW0NIMl1bQ0gyXVtDSDJdW0NAQEhdKFtDSDNdKVtDSDJdW0NASF0oW05IXUMxPU8pW0NASF0oW09IXSlbQ0gyXVtOSF1bQ0gyXWMzW2NIXVtjSF1bY0hdYyhbY0hdMylbQ0hdKFtDSDNdKVtDSDNd

>  <s_epik_cmdline>
J2VwaWtfcHl0aG9uJywgJy1waCcsICc3LjAnLCAnLXRuJywgJzgnLCAnLW1hJywgJzIwMCcsICctaW1hZScsICc8aW5maWxlLm1hZT4nLCAnLW9tYWUnLCAnPG91dGZpbGUubWFlPic=

>  <r_epik_Ionization_Penalty>
0.0165

>  <r_epik_Ionization_Penalty_Charging>
0.0165

>  <r_epik_Ionization_Penalty_Neutral>
0

>  <r_epik_State_Penalty>
0.013

>  <r_epik_Charging_Adjusted_Penalty>
0.0295552

>  <i_epik_Tot_Q>
1

>  <i_epik_Tot_abs_Q>
1

>  <s_lp_Force_Field>
OPLS_2005

>  <r_lp_Energy>
42.7267

>  <b_lp_Chiralities_Consistent>
1

>  <s_lp_Variant>
BACE_6.smi:1-1

>  <chiral flag>
1

>  <version>
0

>  <r_i_glide_lipo>
-0.959692

>  <r_i_glide_hbond>
-0.531466

>  <r_i_glide_metal>
-0

>  <r_i_glide_rewards>
0

>  <r_i_glide_erotb>
0.395592

>  <r_i_glide_esite>
-0.02202

>  <s_i_glide_gridfile>
second_dock_grid_2

>  <i_i_glide_lignum>
12

>  <i_i_glide_rotatable_bonds>
8

>  <r_i_docking_score>
-3.08818

>  <r_i_glide_ligand_efficiency>
-0.0834643

>  <r_i_glide_ligand_efficiency_sa>
-0.278121

>  <r_i_glide_ligand_efficiency_ln>
-0.669753

>  <r_glide_XP_GScore>
-3.10118

>  <r_i_glide_gscore>
-3.10118

>  <r_i_glide_evdw>
-35.8423

>  <r_i_glide_ecoul>
-16.6803

>  <r_i_glide_energy>
-52.5226

>  <r_i_glide_einternal>
6.37376

>  <r_i_glide_emodel>
-66.2799

>  <r_glide_XP_HBond>
-0.536938

>  <i_i_glide_confnum>
1

>  <i_i_glide_posenum>
16

>  <r_i_glide_eff_state_penalty>
0.013

>  <i_glide_XP_PoseRank>
4

>  <chiral flag>
1

$$$$
