BACE_10.smi:1
 OpenBabel10031817133D
Structure written by MMmdl.
 86 88  0  0  1  0  0  0  0  0999 V2000
   20.7010   38.4600   -7.2326 C   0  0  0  0  0  0  0  0  0  0  0  0
   20.0551   39.3164   -8.3361 C   0  0  2  0  0  0  0  0  0  0  0  0
   19.3258   38.4233   -9.3729 C   0  0  0  0  0  0  0  0  0  0  0  0
   17.9794   37.8711   -8.8794 C   0  0  0  0  0  0  0  0  0  0  0  0
   17.1823   38.9856   -8.5218 O   0  0  0  0  0  0  0  0  0  0  0  0
   15.8397   38.6718   -8.1982 C   0  0  0  0  0  0  0  0  0  0  0  0
   15.2617   39.8000   -7.3357 C   0  0  0  0  0  0  0  0  0  0  0  0
   15.5058   41.1992   -7.9184 C   0  0  0  0  0  0  0  0  0  0  0  0
   14.8911   41.3921   -9.3076 C   0  0  0  0  0  0  0  0  0  0  0  0
   15.1419   42.7339   -9.8064 N   0  0  0  0  0  0  0  0  0  0  0  0
   16.3037   43.0734  -10.5148 C   0  0  0  0  0  0  0  0  0  0  0  0
   16.4039   44.4069  -10.9511 C   0  0  0  0  0  0  0  0  0  0  0  0
   17.4718   44.8227  -11.7669 C   0  0  0  0  0  0  0  0  0  0  0  0
   18.4601   43.8912  -12.1407 C   0  0  0  0  0  0  0  0  0  0  0  0
   18.4269   42.5711  -11.6386 C   0  0  0  0  0  0  0  0  0  0  0  0
   17.3407   42.1604  -10.8290 C   0  0  0  0  0  0  0  0  0  0  0  0
   19.4913   41.5986  -12.0522 C   0  0  0  0  0  0  0  0  0  0  0  0
   19.6601   41.3497  -13.2399 O   0  0  0  0  0  0  0  0  0  0  0  0
   20.2720   41.0191  -11.1289 N   0  0  0  0  0  0  0  0  0  0  0  0
   20.5621   41.4645   -9.7672 C   0  0  1  0  0  0  0  0  0  0  0  0
   21.1139   40.2614   -8.9529 C   0  0  0  0  0  0  0  0  0  0  0  0
   21.5765   42.6577   -9.7715 C   0  0  1  0  0  0  0  0  0  0  0  0
   22.6535   42.6809  -10.8889 C   0  0  0  0  0  0  0  0  0  0  0  0
   23.5786   41.5264  -10.8396 N   0  3  0  0  0  0  0  0  0  0  0  0
   24.6115   41.5399   -9.7781 C   0  0  0  0  0  0  0  0  0  0  0  0
   25.7186   42.5439  -10.0397 C   0  0  0  0  0  0  0  0  0  0  0  0
   25.6105   43.8578   -9.5392 C   0  0  0  0  0  0  0  0  0  0  0  0
   26.6457   44.7848   -9.7562 C   0  0  0  0  0  0  0  0  0  0  0  0
   27.7983   44.3996  -10.4643 C   0  0  0  0  0  0  0  0  0  0  0  0
   27.9274   43.0841  -10.9580 C   0  0  0  0  0  0  0  0  0  0  0  0
   26.8816   42.1570  -10.7418 C   0  0  0  0  0  0  0  0  0  0  0  0
   29.2050   42.6857  -11.6887 C   0  0  0  0  0  0  0  0  0  0  0  0
   28.9271   41.9447  -13.0046 C   0  0  0  0  0  0  0  0  0  0  0  0
   30.1357   41.8781  -10.7748 C   0  0  0  0  0  0  0  0  0  0  0  0
   20.8575   43.8705   -9.8429 O   0  0  0  0  0  0  0  0  0  0  0  0
   17.5657   46.2667  -12.2256 C   0  0  0  0  0  0  0  0  0  0  0  0
   16.6252   46.5816  -13.2399 O   0  0  0  0  0  0  0  0  0  0  0  0
   15.4392   47.2099  -12.7846 C   0  0  0  0  0  0  0  0  0  0  0  0
   19.3191   39.9549   -7.8449 H   0  0  0  0  0  0  0  0  0  0  0  0
   19.6421   41.7856   -9.2751 H   0  0  0  0  0  0  0  0  0  0  0  0
   22.0728   42.7119   -8.8026 H   0  0  0  0  0  0  0  0  0  0  0  0
   21.5347   37.8769   -7.6250 H   0  0  0  0  0  0  0  0  0  0  0  0
   19.9895   37.7636   -6.7876 H   0  0  0  0  0  0  0  0  0  0  0  0
   21.0859   39.0831   -6.4241 H   0  0  0  0  0  0  0  0  0  0  0  0
   19.0998   38.9845  -10.2752 H   0  0  0  0  0  0  0  0  0  0  0  0
   19.9750   37.6037   -9.6854 H   0  0  0  0  0  0  0  0  0  0  0  0
   17.4969   37.3008   -9.6756 H   0  0  0  0  0  0  0  0  0  0  0  0
   18.1071   37.2051   -8.0242 H   0  0  0  0  0  0  0  0  0  0  0  0
   15.2619   38.5289   -9.1125 H   0  0  0  0  0  0  0  0  0  0  0  0
   15.7799   37.7449   -7.6398 H   0  0  0  0  0  0  0  0  0  0  0  0
   14.1944   39.6329   -7.1806 H   0  0  0  0  0  0  0  0  0  0  0  0
   15.7152   39.7546   -6.3435 H   0  0  0  0  0  0  0  0  0  0  0  0
   15.0849   41.9393   -7.2401 H   0  0  0  0  0  0  0  0  0  0  0  0
   16.5791   41.3995   -7.9500 H   0  0  0  0  0  0  0  0  0  0  0  0
   15.2540   40.6495  -10.0182 H   0  0  0  0  0  0  0  0  0  0  0  0
   13.8116   41.2464   -9.2438 H   0  0  0  0  0  0  0  0  0  0  0  0
   14.4796   43.4512   -9.5536 H   0  0  0  0  0  0  0  0  0  0  0  0
   15.6409   45.1151  -10.6669 H   0  0  0  0  0  0  0  0  0  0  0  0
   19.2595   44.1996  -12.8031 H   0  0  0  0  0  0  0  0  0  0  0  0
   17.3045   41.1370  -10.4840 H   0  0  0  0  0  0  0  0  0  0  0  0
   20.8467   40.2689  -11.4805 H   0  0  0  0  0  0  0  0  0  0  0  0
   21.6961   40.6567   -8.1191 H   0  0  0  0  0  0  0  0  0  0  0  0
   21.8250   39.6813   -9.5419 H   0  0  0  0  0  0  0  0  0  0  0  0
   22.1830   42.6920  -11.8717 H   0  0  0  0  0  0  0  0  0  0  0  0
   23.2241   43.6073  -10.8467 H   0  0  0  0  0  0  0  0  0  0  0  0
   23.0264   40.6923  -10.7177 H   0  0  0  0  0  0  0  0  0  0  0  0
   24.1636   41.7158   -8.8007 H   0  0  0  0  0  0  0  0  0  0  0  0
   25.0630   40.5501   -9.7243 H   0  0  0  0  0  0  0  0  0  0  0  0
   24.7354   44.1610   -8.9837 H   0  0  0  0  0  0  0  0  0  0  0  0
   26.5581   45.7916   -9.3726 H   0  0  0  0  0  0  0  0  0  0  0  0
   28.5913   45.1174  -10.6128 H   0  0  0  0  0  0  0  0  0  0  0  0
   26.9763   41.1398  -11.0979 H   0  0  0  0  0  0  0  0  0  0  0  0
   29.7303   43.6038  -11.9548 H   0  0  0  0  0  0  0  0  0  0  0  0
   28.2700   42.5375  -13.6399 H   0  0  0  0  0  0  0  0  0  0  0  0
   28.4602   40.9752  -12.8382 H   0  0  0  0  0  0  0  0  0  0  0  0
   29.8497   41.7639  -13.5579 H   0  0  0  0  0  0  0  0  0  0  0  0
   30.3866   42.4405   -9.8747 H   0  0  0  0  0  0  0  0  0  0  0  0
   31.0672   41.6296  -11.2815 H   0  0  0  0  0  0  0  0  0  0  0  0
   29.6616   40.9481  -10.4768 H   0  0  0  0  0  0  0  0  0  0  0  0
   20.2259   43.8976   -9.1374 H   0  0  0  0  0  0  0  0  0  0  0  0
   17.4810   46.9374  -11.3692 H   0  0  0  0  0  0  0  0  0  0  0  0
   18.5600   46.4344  -12.6387 H   0  0  0  0  0  0  0  0  0  0  0  0
   14.8105   47.4499  -13.6420 H   0  0  0  0  0  0  0  0  0  0  0  0
   15.6624   48.1416  -12.2625 H   0  0  0  0  0  0  0  0  0  0  0  0
   14.8596   46.5650  -12.1256 H   0  0  0  0  0  0  0  0  0  0  0  0
   24.0447   41.4301  -11.7409 H   0  0  0  0  0  0  0  0  0  0  0  0
  1  2  1  0  0  0  0
  1 42  1  0  0  0  0
  1 43  1  0  0  0  0
  1 44  1  0  0  0  0
  2 39  1  1  0  0  0
  2 21  1  0  0  0  0
  2  3  1  0  0  0  0
  3  4  1  0  0  0  0
  3 45  1  0  0  0  0
  3 46  1  0  0  0  0
  4  5  1  0  0  0  0
  4 47  1  0  0  0  0
  4 48  1  0  0  0  0
  5  6  1  0  0  0  0
  6  7  1  0  0  0  0
  6 49  1  0  0  0  0
  6 50  1  0  0  0  0
  7  8  1  0  0  0  0
  7 51  1  0  0  0  0
  7 52  1  0  0  0  0
  8  9  1  0  0  0  0
  8 53  1  0  0  0  0
  8 54  1  0  0  0  0
  9 10  1  0  0  0  0
  9 55  1  0  0  0  0
  9 56  1  0  0  0  0
 10 11  1  0  0  0  0
 10 57  1  0  0  0  0
 11 16  1  0  0  0  0
 11 12  2  0  0  0  0
 12 13  1  0  0  0  0
 12 58  1  0  0  0  0
 13 14  2  0  0  0  0
 13 36  1  0  0  0  0
 14 15  1  0  0  0  0
 14 59  1  0  0  0  0
 15 16  2  0  0  0  0
 15 17  1  0  0  0  0
 16 60  1  0  0  0  0
 17 18  2  0  0  0  0
 17 19  1  0  0  0  0
 19 20  1  0  0  0  0
 19 61  1  0  0  0  0
 20 40  1  1  0  0  0
 20 21  1  0  0  0  0
 20 22  1  0  0  0  0
 21 62  1  0  0  0  0
 21 63  1  0  0  0  0
 22 41  1  1  0  0  0
 22 23  1  0  0  0  0
 22 35  1  0  0  0  0
 23 24  1  0  0  0  0
 23 64  1  0  0  0  0
 23 65  1  0  0  0  0
 24 25  1  0  0  0  0
 24 66  1  0  0  0  0
 24 86  1  0  0  0  0
 25 26  1  0  0  0  0
 25 67  1  0  0  0  0
 25 68  1  0  0  0  0
 26 31  1  0  0  0  0
 26 27  2  0  0  0  0
 27 28  1  0  0  0  0
 27 69  1  0  0  0  0
 28 29  2  0  0  0  0
 28 70  1  0  0  0  0
 29 30  1  0  0  0  0
 29 71  1  0  0  0  0
 30 31  2  0  0  0  0
 30 32  1  0  0  0  0
 31 72  1  0  0  0  0
 32 33  1  0  0  0  0
 32 34  1  0  0  0  0
 32 73  1  0  0  0  0
 33 74  1  0  0  0  0
 33 75  1  0  0  0  0
 33 76  1  0  0  0  0
 34 77  1  0  0  0  0
 34 78  1  0  0  0  0
 34 79  1  0  0  0  0
 35 80  1  0  0  0  0
 36 37  1  0  0  0  0
 36 81  1  0  0  0  0
 36 82  1  0  0  0  0
 37 38  1  0  0  0  0
 38 83  1  0  0  0  0
 38 84  1  0  0  0  0
 38 85  1  0  0  0  0
M  CHG  1  24   1
M  END
>  <s_m_source_file>
BACE_10.smi

>  <i_m_source_file_index>
1

>  <i_lp_mmshare_version>
42013

>  <i_f3d_flags>
0

>  <s_epik_input>
W05IXTFbQ0gyXVtDSDJdW0NIMl1bQ0gyXU9bQ0gyXVtDSDJdW0NAQEhdKFtDSDNdKVtDSDJdW0NASF0oW05IXUMoPU8pYyhbY0hdMilbY0hdYyhbY0hdYzEyKVtDSDJdT1tDSDNdKVtDQEhdKFtPSF0pW0NIMl1bTkhdW0NIMl1jM1tjSF1bY0hdW2NIXWMoW2NIXTMpW0NIXShbQ0gzXSlbQ0gzXQ==

>  <s_epik_cmdline>
J2VwaWtfcHl0aG9uJywgJy1waCcsICc3LjAnLCAnLXRuJywgJzgnLCAnLW1hJywgJzIwMCcsICctaW1hZScsICc8aW5maWxlLm1hZT4nLCAnLW9tYWUnLCAnPG91dGZpbGUubWFlPic=

>  <r_epik_Ionization_Penalty>
0.0171

>  <r_epik_Ionization_Penalty_Charging>
0.0167

>  <r_epik_Ionization_Penalty_Neutral>
0.0004

>  <r_epik_State_Penalty>
0.0132

>  <r_epik_Charging_Adjusted_Penalty>
0.0299522

>  <i_epik_Tot_Q>
1

>  <i_epik_Tot_abs_Q>
1

>  <s_lp_Force_Field>
OPLS_2005

>  <r_lp_Energy>
35.5902

>  <b_lp_Chiralities_Consistent>
1

>  <s_lp_Variant>
BACE_10.smi:1-1

>  <chiral flag>
1

>  <version>
0

>  <r_i_glide_lipo>
-0.737388

>  <r_i_glide_hbond>
-0.0549666

>  <r_i_glide_metal>
-0

>  <r_i_glide_rewards>
0

>  <r_i_glide_erotb>
0.445295

>  <r_i_glide_esite>
-0.000706045

>  <s_i_glide_gridfile>
second_dock_grid_2

>  <i_i_glide_lignum>
20

>  <i_i_glide_rotatable_bonds>
9

>  <r_i_docking_score>
-3.14153

>  <r_i_glide_ligand_efficiency>
-0.082672

>  <r_i_glide_ligand_efficiency_sa>
-0.277941

>  <r_i_glide_ligand_efficiency_ln>
-0.677407

>  <r_glide_XP_GScore>
-3.15473

>  <r_i_glide_gscore>
-3.15473

>  <r_i_glide_evdw>
-38.3318

>  <r_i_glide_ecoul>
-13.2465

>  <r_i_glide_energy>
-51.5783

>  <r_i_glide_einternal>
3.8433

>  <r_i_glide_emodel>
-69.7763

>  <r_glide_XP_HBond>
-0.7

>  <i_i_glide_confnum>
1

>  <i_i_glide_posenum>
9

>  <r_i_glide_eff_state_penalty>
0.0132

>  <i_glide_XP_PoseRank>
4

>  <chiral flag>
1

$$$$
