BACE_18.smi:1
 OpenBabel10031817133D
Structure written by MMmdl.
 66 67  0  0  1  0  0  0  0  0999 V2000
   17.1973   44.5877   -8.6979 O   0  0  0  0  0  0  0  0  0  0  0  0
   16.1139   44.6729   -7.7995 C   0  0  0  0  0  0  0  0  0  0  0  0
   14.8485   43.9899   -8.3887 C   0  0  2  0  0  0  0  0  0  0  0  0
   13.6686   44.5172   -7.7789 O   0  0  0  0  0  0  0  0  0  0  0  0
   14.8085   42.4188   -8.3642 C   0  0  1  0  0  0  0  0  0  0  0  0
   14.2720   41.8745   -9.6137 N   0  0  0  0  0  0  0  0  0  0  0  0
   14.8328   41.7500  -10.8273 C   0  0  0  0  0  0  0  0  0  0  0  0
   14.3933   40.9495  -11.6405 O   0  0  0  0  0  0  0  0  0  0  0  0
   16.0560   41.6156   -7.8714 C   0  0  0  0  0  0  0  0  0  0  0  0
   15.9547   40.0515   -7.9070 C   0  0  2  0  0  0  0  0  0  0  0  0
   14.5990   39.5048   -7.4135 C   0  0  0  0  0  0  0  0  0  0  0  0
   17.0473   39.3527   -7.0637 C   0  0  0  0  0  0  0  0  0  0  0  0
   18.4983   39.4822   -7.5650 C   0  0  0  0  0  0  0  0  0  0  0  0
   18.8343   38.4432   -8.6530 C   0  0  0  0  0  0  0  0  0  0  0  0
   20.2841   38.5110   -9.1726 C   0  0  0  0  0  0  0  0  0  0  0  0
   20.4087   39.1350  -10.5715 C   0  0  0  0  0  0  0  0  0  0  0  0
   20.1361   40.6463  -10.5988 C   0  0  0  0  0  0  0  0  0  0  0  0
   19.9045   41.1610  -12.0252 C   0  0  0  0  0  0  0  0  0  0  0  0
   19.6088   42.5517  -12.0390 O   0  0  0  0  0  0  0  0  0  0  0  0
   18.3067   42.9693  -11.8621 C   0  0  0  0  0  0  0  0  0  0  0  0
   17.2581   42.1431  -11.3857 C   0  0  0  0  0  0  0  0  0  0  0  0
   15.9548   42.6565  -11.2401 C   0  0  0  0  0  0  0  0  0  0  0  0
   18.0274   44.3129  -12.1906 C   0  0  0  0  0  0  0  0  0  0  0  0
   16.7237   44.8451  -12.0546 C   0  0  0  0  0  0  0  0  0  0  0  0
   15.6880   43.9857  -11.6345 C   0  0  0  0  0  0  0  0  0  0  0  0
   16.3940   46.2739  -12.4157 C   0  0  0  0  0  0  0  0  0  0  0  0
   15.3528   46.4971  -13.0395 O   0  0  0  0  0  0  0  0  0  0  0  0
   17.2121   47.2814  -12.0185 N   0  0  0  0  0  0  0  0  0  0  0  0
   18.3243   47.1624  -11.0724 C   0  0  0  0  0  0  0  0  0  0  0  0
   16.9369   48.6529  -12.4591 C   0  0  0  0  0  0  0  0  0  0  0  0
   14.7353   44.3571   -9.3978 H   0  0  0  0  0  0  0  0  0  0  0  0
   14.0604   42.1570   -7.6188 H   0  0  0  0  0  0  0  0  0  0  0  0
   16.0699   39.7255   -8.9419 H   0  0  0  0  0  0  0  0  0  0  0  0
   17.4438   43.6804   -8.7914 H   0  0  0  0  0  0  0  0  0  0  0  0
   16.4602   44.2637   -6.8501 H   0  0  0  0  0  0  0  0  0  0  0  0
   15.9154   45.7326   -7.6395 H   0  0  0  0  0  0  0  0  0  0  0  0
   12.9396   43.9793   -8.0537 H   0  0  0  0  0  0  0  0  0  0  0  0
   13.4583   41.2878   -9.4681 H   0  0  0  0  0  0  0  0  0  0  0  0
   16.9301   41.9106   -8.4485 H   0  0  0  0  0  0  0  0  0  0  0  0
   16.2595   41.9139   -6.8415 H   0  0  0  0  0  0  0  0  0  0  0  0
   14.3522   39.8959   -6.4257 H   0  0  0  0  0  0  0  0  0  0  0  0
   14.6057   38.4160   -7.3331 H   0  0  0  0  0  0  0  0  0  0  0  0
   13.7847   39.7388   -8.0960 H   0  0  0  0  0  0  0  0  0  0  0  0
   16.9663   39.7118   -6.0403 H   0  0  0  0  0  0  0  0  0  0  0  0
   16.8271   38.2853   -6.9828 H   0  0  0  0  0  0  0  0  0  0  0  0
   18.6987   40.5006   -7.8915 H   0  0  0  0  0  0  0  0  0  0  0  0
   19.1672   39.3117   -6.7188 H   0  0  0  0  0  0  0  0  0  0  0  0
   18.6720   37.4505   -8.2301 H   0  0  0  0  0  0  0  0  0  0  0  0
   18.1272   38.5218   -9.4803 H   0  0  0  0  0  0  0  0  0  0  0  0
   20.9338   39.0266   -8.4648 H   0  0  0  0  0  0  0  0  0  0  0  0
   20.6705   37.4943   -9.2366 H   0  0  0  0  0  0  0  0  0  0  0  0
   21.4093   38.9503  -10.9663 H   0  0  0  0  0  0  0  0  0  0  0  0
   19.7260   38.6158  -11.2476 H   0  0  0  0  0  0  0  0  0  0  0  0
   19.2675   40.8757   -9.9897 H   0  0  0  0  0  0  0  0  0  0  0  0
   20.9680   41.1807  -10.1411 H   0  0  0  0  0  0  0  0  0  0  0  0
   20.8123   41.0122  -12.6093 H   0  0  0  0  0  0  0  0  0  0  0  0
   19.1284   40.5896  -12.5324 H   0  0  0  0  0  0  0  0  0  0  0  0
   17.4201   41.1018  -11.1433 H   0  0  0  0  0  0  0  0  0  0  0  0
   18.8317   44.9303  -12.5606 H   0  0  0  0  0  0  0  0  0  0  0  0
   14.6742   44.3594  -11.5910 H   0  0  0  0  0  0  0  0  0  0  0  0
   18.1912   46.3437  -10.3681 H   0  0  0  0  0  0  0  0  0  0  0  0
   18.4331   48.0667  -10.4720 H   0  0  0  0  0  0  0  0  0  0  0  0
   19.2628   47.0077  -11.6051 H   0  0  0  0  0  0  0  0  0  0  0  0
   16.7595   48.6885  -13.5367 H   0  0  0  0  0  0  0  0  0  0  0  0
   17.7738   49.3237  -12.2604 H   0  0  0  0  0  0  0  0  0  0  0  0
   16.0551   49.0487  -11.9541 H   0  0  0  0  0  0  0  0  0  0  0  0
  1  2  1  0  0  0  0
  1 34  1  0  0  0  0
  2  3  1  0  0  0  0
  2 35  1  0  0  0  0
  2 36  1  0  0  0  0
  3 31  1  6  0  0  0
  3  4  1  0  0  0  0
  3  5  1  0  0  0  0
  4 37  1  0  0  0  0
  5 32  1  1  0  0  0
  5  6  1  0  0  0  0
  5  9  1  0  0  0  0
  6  7  1  0  0  0  0
  6 38  1  0  0  0  0
  7 22  1  0  0  0  0
  7  8  2  0  0  0  0
  9 10  1  0  0  0  0
  9 39  1  0  0  0  0
  9 40  1  0  0  0  0
 10 33  1  6  0  0  0
 10 11  1  0  0  0  0
 10 12  1  0  0  0  0
 11 41  1  0  0  0  0
 11 42  1  0  0  0  0
 11 43  1  0  0  0  0
 12 13  1  0  0  0  0
 12 44  1  0  0  0  0
 12 45  1  0  0  0  0
 13 14  1  0  0  0  0
 13 46  1  0  0  0  0
 13 47  1  0  0  0  0
 14 15  1  0  0  0  0
 14 48  1  0  0  0  0
 14 49  1  0  0  0  0
 15 16  1  0  0  0  0
 15 50  1  0  0  0  0
 15 51  1  0  0  0  0
 16 17  1  0  0  0  0
 16 52  1  0  0  0  0
 16 53  1  0  0  0  0
 17 18  1  0  0  0  0
 17 54  1  0  0  0  0
 17 55  1  0  0  0  0
 18 19  1  0  0  0  0
 18 56  1  0  0  0  0
 18 57  1  0  0  0  0
 19 20  1  0  0  0  0
 20 21  1  0  0  0  0
 20 23  2  0  0  0  0
 21 22  2  0  0  0  0
 21 58  1  0  0  0  0
 22 25  1  0  0  0  0
 23 24  1  0  0  0  0
 23 59  1  0  0  0  0
 24 25  2  0  0  0  0
 24 26  1  0  0  0  0
 25 60  1  0  0  0  0
 26 27  2  0  0  0  0
 26 28  1  0  0  0  0
 28 29  1  0  0  0  0
 28 30  1  0  0  0  0
 29 61  1  0  0  0  0
 29 62  1  0  0  0  0
 29 63  1  0  0  0  0
 30 64  1  0  0  0  0
 30 65  1  0  0  0  0
 30 66  1  0  0  0  0
M  END
>  <s_m_source_file>
BACE_18.smi

>  <i_m_source_file_index>
1

>  <i_lp_mmshare_version>
42013

>  <i_f3d_flags>
0

>  <s_epik_input>
W0NIM11OKFtDSDNdKUMoPU8pYyhbY0hdMSlbY0hdYyhbY0hdYzEyKUMoPU8pW05IXVtDQEhdKFtDQEBIXShbT0hdKVtDSDJdW09IXSlbQ0gyXVtDQEhdKFtDSDNdKVtDSDJdW0NIMl1bQ0gyXVtDSDJdW0NIMl1bQ0gyXVtDSDJdTzI=

>  <s_epik_cmdline>
J2VwaWtfcHl0aG9uJywgJy1waCcsICc3LjAnLCAnLXRuJywgJzgnLCAnLW1hJywgJzIwMCcsICctaW1hZScsICc8aW5maWxlLm1hZT4nLCAnLW9tYWUnLCAnPG91dGZpbGUubWFlPic=

>  <r_lp_tautomer_probability>
1

>  <r_epik_Ionization_Penalty>
0

>  <r_epik_Ionization_Penalty_Charging>
0

>  <r_epik_Ionization_Penalty_Neutral>
0

>  <r_epik_State_Penalty>
-0

>  <r_epik_Charging_Adjusted_Penalty>
0

>  <i_epik_Tot_Q>
0

>  <i_epik_Tot_abs_Q>
0

>  <s_lp_Force_Field>
OPLS_2005

>  <r_lp_Energy>
54.3118

>  <b_lp_Chiralities_Consistent>
1

>  <s_lp_Variant>
BACE_18.smi:1-1

>  <chiral flag>
1

>  <version>
0

>  <r_i_glide_lipo>
-0.185503

>  <r_i_glide_hbond>
-0.470777

>  <r_i_glide_metal>
-0

>  <r_i_glide_rewards>
-0.541757

>  <r_i_glide_erotb>
0.335754

>  <r_i_glide_esite>
-0.0180469

>  <s_i_glide_gridfile>
second_dock_grid_2

>  <i_i_glide_lignum>
35

>  <i_i_glide_rotatable_bonds>
6

>  <r_i_docking_score>
-3.83594

>  <r_i_glide_ligand_efficiency>
-0.127865

>  <r_i_glide_ligand_efficiency_sa>
-0.397305

>  <r_i_glide_ligand_efficiency_ln>
-0.871568

>  <r_glide_XP_GScore>
-3.83594

>  <r_i_glide_gscore>
-3.83594

>  <r_i_glide_evdw>
-27.503

>  <r_i_glide_ecoul>
-16.0135

>  <r_i_glide_energy>
-43.5165

>  <r_i_glide_einternal>
5.66963

>  <r_i_glide_emodel>
-46.718

>  <r_glide_XP_HBond>
-0.70108

>  <i_i_glide_confnum>
1

>  <i_i_glide_posenum>
1

>  <r_i_glide_eff_state_penalty>
-0

>  <i_glide_XP_PoseRank>
2

>  <chiral flag>
1

$$$$
