BACE_17.smi:1
 OpenBabel10031817133D
Structure written by MMmdl.
 62 64  0  0  1  0  0  0  0  0999 V2000
   18.7065   49.3361   -6.9405 C   0  0  0  0  0  0  0  0  0  0  0  0
   19.5850   48.1792   -7.1418 N   0  0  0  0  0  0  0  0  0  0  0  0
   20.7237   48.4298   -8.0316 C   0  0  0  0  0  0  0  0  0  0  0  0
   19.3598   47.0015   -6.5071 C   0  0  0  0  0  0  0  0  0  0  0  0
   18.4943   46.8642   -5.6401 O   0  0  0  0  0  0  0  0  0  0  0  0
   20.2146   45.8155   -6.8697 C   0  0  0  0  0  0  0  0  0  0  0  0
   20.9095   45.1191   -5.8559 C   0  0  0  0  0  0  0  0  0  0  0  0
   20.2755   45.3394   -8.1996 C   0  0  0  0  0  0  0  0  0  0  0  0
   21.0653   44.2148   -8.5195 C   0  0  0  0  0  0  0  0  0  0  0  0
   21.8082   43.5770   -7.5048 C   0  0  0  0  0  0  0  0  0  0  0  0
   21.7080   43.9940   -6.1684 C   0  0  0  0  0  0  0  0  0  0  0  0
   21.1204   43.6934   -9.9214 C   0  0  0  0  0  0  0  0  0  0  0  0
   21.1388   44.4496  -10.8922 O   0  0  0  0  0  0  0  0  0  0  0  0
   21.0908   42.3559  -10.0015 N   0  0  0  0  0  0  0  0  0  0  0  0
   21.1603   41.5398  -11.2063 C   0  0  2  0  0  0  0  0  0  0  0  0
   19.8727   41.6979  -12.0642 C   0  0  1  0  0  0  0  0  0  0  0  0
   20.0599   40.9502  -13.2400 O   0  0  0  0  0  0  0  0  0  0  0  0
   18.5337   41.3042  -11.3944 C   0  0  0  0  0  0  0  0  0  0  0  0
   17.4809   42.1498  -11.8183 O   0  0  0  0  0  0  0  0  0  0  0  0
   21.5626   40.0797  -10.8442 C   0  0  0  0  0  0  0  0  0  0  0  0
   20.7204   39.4189   -9.7593 C   0  0  0  0  0  0  0  0  0  0  0  0
   20.9667   39.6924   -8.3960 C   0  0  0  0  0  0  0  0  0  0  0  0
   20.1381   39.1409   -7.3868 C   0  0  0  0  0  0  0  0  0  0  0  0
   19.0795   38.2899   -7.7647 C   0  0  0  0  0  0  0  0  0  0  0  0
   18.8604   37.9742   -9.1179 C   0  0  0  0  0  0  0  0  0  0  0  0
   19.6848   38.5308  -10.1122 C   0  0  0  0  0  0  0  0  0  0  0  0
   20.2999   39.3832   -6.0407 O   0  0  0  0  0  0  0  0  0  0  0  0
   21.2009   40.4061   -5.6388 C   0  0  0  0  0  0  0  0  0  0  0  0
   21.0846   40.6107   -4.1204 C   0  0  0  0  0  0  0  0  0  0  0  0
   22.0721   41.6288   -3.5178 C   0  0  0  0  0  0  0  0  0  0  0  0
   21.8466   43.0863   -3.9530 C   0  0  0  0  0  0  0  0  0  0  0  0
   22.4149   43.2623   -5.2434 O   0  0  0  0  0  0  0  0  0  0  0  0
   21.9829   41.9361  -11.8078 H   0  0  0  0  0  0  0  0  0  0  0  0
   19.7956   42.7412  -12.3651 H   0  0  0  0  0  0  0  0  0  0  0  0
   18.0452   49.4497   -7.7988 H   0  0  0  0  0  0  0  0  0  0  0  0
   19.2834   50.2535   -6.8390 H   0  0  0  0  0  0  0  0  0  0  0  0
   18.0851   49.2651   -6.0475 H   0  0  0  0  0  0  0  0  0  0  0  0
   21.6543   48.0544   -7.5997 H   0  0  0  0  0  0  0  0  0  0  0  0
   20.8711   49.4951   -8.2249 H   0  0  0  0  0  0  0  0  0  0  0  0
   20.5758   47.9551   -9.0044 H   0  0  0  0  0  0  0  0  0  0  0  0
   20.8419   45.4697   -4.8399 H   0  0  0  0  0  0  0  0  0  0  0  0
   19.7008   45.8219   -8.9773 H   0  0  0  0  0  0  0  0  0  0  0  0
   22.4388   42.7300   -7.7335 H   0  0  0  0  0  0  0  0  0  0  0  0
   21.0111   41.8500   -9.1316 H   0  0  0  0  0  0  0  0  0  0  0  0
   19.9899   40.0312  -13.0245 H   0  0  0  0  0  0  0  0  0  0  0  0
   18.2554   40.2721  -11.6025 H   0  0  0  0  0  0  0  0  0  0  0  0
   18.6001   41.4081  -10.3117 H   0  0  0  0  0  0  0  0  0  0  0  0
   16.7504   42.0040  -11.2377 H   0  0  0  0  0  0  0  0  0  0  0  0
   21.5731   39.4478  -11.7325 H   0  0  0  0  0  0  0  0  0  0  0  0
   22.5974   40.0802  -10.4948 H   0  0  0  0  0  0  0  0  0  0  0  0
   21.7901   40.3424   -8.1401 H   0  0  0  0  0  0  0  0  0  0  0  0
   18.4368   37.8681   -7.0039 H   0  0  0  0  0  0  0  0  0  0  0  0
   18.0544   37.3075   -9.3913 H   0  0  0  0  0  0  0  0  0  0  0  0
   19.5073   38.2867  -11.1494 H   0  0  0  0  0  0  0  0  0  0  0  0
   22.2248   40.1363   -5.9027 H   0  0  0  0  0  0  0  0  0  0  0  0
   20.9376   41.3274   -6.1505 H   0  0  0  0  0  0  0  0  0  0  0  0
   20.0640   40.8954   -3.8629 H   0  0  0  0  0  0  0  0  0  0  0  0
   21.2607   39.6514   -3.6401 H   0  0  0  0  0  0  0  0  0  0  0  0
   21.9685   41.5839   -2.4341 H   0  0  0  0  0  0  0  0  0  0  0  0
   23.0994   41.3308   -3.7286 H   0  0  0  0  0  0  0  0  0  0  0  0
   20.7825   43.3227   -3.9082 H   0  0  0  0  0  0  0  0  0  0  0  0
   22.3646   43.7513   -3.2645 H   0  0  0  0  0  0  0  0  0  0  0  0
  1  2  1  0  0  0  0
  1 35  1  0  0  0  0
  1 36  1  0  0  0  0
  1 37  1  0  0  0  0
  2  3  1  0  0  0  0
  2  4  1  0  0  0  0
  3 38  1  0  0  0  0
  3 39  1  0  0  0  0
  3 40  1  0  0  0  0
  4  5  2  0  0  0  0
  4  6  1  0  0  0  0
  6  7  1  0  0  0  0
  6  8  2  0  0  0  0
  7 11  2  0  0  0  0
  7 41  1  0  0  0  0
  8  9  1  0  0  0  0
  8 42  1  0  0  0  0
  9 10  2  0  0  0  0
  9 12  1  0  0  0  0
 10 11  1  0  0  0  0
 10 43  1  0  0  0  0
 11 32  1  0  0  0  0
 12 13  2  0  0  0  0
 12 14  1  0  0  0  0
 14 15  1  0  0  0  0
 14 44  1  0  0  0  0
 15 33  1  6  0  0  0
 15 16  1  0  0  0  0
 15 20  1  0  0  0  0
 16 34  1  6  0  0  0
 16 17  1  0  0  0  0
 16 18  1  0  0  0  0
 17 45  1  0  0  0  0
 18 19  1  0  0  0  0
 18 46  1  0  0  0  0
 18 47  1  0  0  0  0
 19 48  1  0  0  0  0
 20 21  1  0  0  0  0
 20 49  1  0  0  0  0
 20 50  1  0  0  0  0
 21 26  1  0  0  0  0
 21 22  2  0  0  0  0
 22 23  1  0  0  0  0
 22 51  1  0  0  0  0
 23 24  2  0  0  0  0
 23 27  1  0  0  0  0
 24 25  1  0  0  0  0
 24 52  1  0  0  0  0
 25 26  2  0  0  0  0
 25 53  1  0  0  0  0
 26 54  1  0  0  0  0
 27 28  1  0  0  0  0
 28 29  1  0  0  0  0
 28 55  1  0  0  0  0
 28 56  1  0  0  0  0
 29 30  1  0  0  0  0
 29 57  1  0  0  0  0
 29 58  1  0  0  0  0
 30 31  1  0  0  0  0
 30 59  1  0  0  0  0
 30 60  1  0  0  0  0
 31 32  1  0  0  0  0
 31 61  1  0  0  0  0
 31 62  1  0  0  0  0
M  END
>  <s_m_source_file>
BACE_17.smi

>  <i_m_source_file_index>
1

>  <i_lp_mmshare_version>
42013

>  <i_f3d_flags>
0

>  <s_epik_input>
W0NIM11OKFtDSDNdKUMoPU8pYyhbY0hdYzEyKVtjSF1jKFtjSF0xKU9bQ0gyXVtDSDJdW0NIMl1bQ0gyXU9jM1tjSF1jKFtjSF1bY0hdW2NIXTMpW0NIMl1bQ0BIXShbTkhdQzI9TylbQ0BASF0oW09IXSlbQ0gyXVtPSF0=

>  <s_epik_cmdline>
J2VwaWtfcHl0aG9uJywgJy1waCcsICc3LjAnLCAnLXRuJywgJzgnLCAnLW1hJywgJzIwMCcsICctaW1hZScsICc8aW5maWxlLm1hZT4nLCAnLW9tYWUnLCAnPG91dGZpbGUubWFlPic=

>  <r_lp_tautomer_probability>
1

>  <r_epik_Ionization_Penalty>
0

>  <r_epik_Ionization_Penalty_Charging>
0

>  <r_epik_Ionization_Penalty_Neutral>
0

>  <r_epik_State_Penalty>
-0

>  <r_epik_Charging_Adjusted_Penalty>
0

>  <i_epik_Tot_Q>
0

>  <i_epik_Tot_abs_Q>
0

>  <s_lp_Force_Field>
OPLS_2005

>  <r_lp_Energy>
47.913

>  <b_lp_Chiralities_Consistent>
1

>  <s_lp_Variant>
BACE_17.smi:1-1

>  <chiral flag>
1

>  <version>
0

>  <r_i_glide_lipo>
-0.567811

>  <r_i_glide_hbond>
0

>  <r_i_glide_metal>
-0

>  <r_i_glide_rewards>
-0.490634

>  <r_i_glide_erotb>
0.306172

>  <r_i_glide_esite>
-0.00811059

>  <s_i_glide_gridfile>
second_dock_grid_2

>  <i_i_glide_lignum>
34

>  <i_i_glide_rotatable_bonds>
6

>  <r_i_docking_score>
-5.70724

>  <r_i_glide_ligand_efficiency>
-0.178351

>  <r_i_glide_ligand_efficiency_sa>
-0.56623

>  <r_i_glide_ligand_efficiency_ln>
-1.27801

>  <r_glide_XP_GScore>
-5.70724

>  <r_i_glide_gscore>
-5.70724

>  <r_i_glide_evdw>
-36.0892

>  <r_i_glide_ecoul>
-8.94499

>  <r_i_glide_energy>
-45.0342

>  <r_i_glide_einternal>
7.74078

>  <r_i_glide_emodel>
-55.6912

>  <r_glide_XP_HBond>
-1.21716

>  <i_i_glide_confnum>
1

>  <i_i_glide_posenum>
7

>  <r_i_glide_eff_state_penalty>
-0

>  <i_glide_XP_PoseRank>
2

>  <chiral flag>
1

$$$$
