BACE_16.smi:1
 OpenBabel10031817133D
Structure written by MMmdl.
 84 87  0  0  1  0  0  0  0  0999 V2000
   22.8597   42.9422   -3.6276 C   0  0  0  0  0  0  0  0  0  0  0  0
   21.4354   42.4456   -3.9216 C   0  0  0  0  0  0  0  0  0  0  0  0
   21.1022   41.1816   -3.1108 C   0  0  0  0  0  0  0  0  0  0  0  0
   21.2086   42.2310   -5.4115 C   0  0  0  0  0  0  0  0  0  0  0  0
   20.1948   42.9496   -6.0808 C   0  0  0  0  0  0  0  0  0  0  0  0
   19.9373   42.7113   -7.4440 C   0  0  0  0  0  0  0  0  0  0  0  0
   20.7055   41.7641   -8.1514 C   0  0  0  0  0  0  0  0  0  0  0  0
   21.7515   41.0713   -7.5041 C   0  0  0  0  0  0  0  0  0  0  0  0
   21.9867   41.2987   -6.1329 C   0  0  0  0  0  0  0  0  0  0  0  0
   22.6053   40.0544   -8.2464 C   0  0  0  0  0  0  0  0  0  0  0  0
   22.8241   40.3243   -9.6725 N   0  0  0  0  0  0  0  0  0  0  0  0
   23.4115   41.6266  -10.0272 C   0  0  0  0  0  0  0  0  0  0  0  0
   24.8036   41.8726   -9.4087 C   0  0  2  0  0  0  0  0  0  0  0  0
   25.2785   43.3485   -9.5976 C   0  0  2  0  0  0  0  0  0  0  0  0
   26.1605   43.6226  -10.8521 C   0  0  0  0  0  0  0  0  0  0  0  0
   27.6658   43.4716  -10.6446 C   0  0  0  0  0  0  0  0  0  0  0  0
   28.3219   42.2926  -11.0498 C   0  0  0  0  0  0  0  0  0  0  0  0
   29.7024   42.1464  -10.8382 C   0  0  0  0  0  0  0  0  0  0  0  0
   30.4405   43.1661  -10.2119 C   0  0  0  0  0  0  0  0  0  0  0  0
   29.8063   44.3752   -9.8292 C   0  0  0  0  0  0  0  0  0  0  0  0
   28.4213   44.5148  -10.0632 C   0  0  0  0  0  0  0  0  0  0  0  0
   30.4497   45.4590   -9.2626 O   0  0  0  0  0  0  0  0  0  0  0  0
   31.7141   45.2840   -8.6249 C   0  0  0  0  0  0  0  0  0  0  0  0
   31.5254   44.7907   -7.1807 C   0  0  0  0  0  0  0  0  0  0  0  0
   31.0014   45.9039   -6.2541 C   0  0  0  0  0  0  0  0  0  0  0  0
   30.6640   45.4114   -4.8349 C   0  0  0  0  0  0  0  0  0  0  0  0
   29.5312   44.5468   -4.8625 O   0  0  0  0  0  0  0  0  0  0  0  0
   28.3018   45.1303   -5.0761 C   0  0  0  0  0  0  0  0  0  0  0  0
   27.4557   44.5498   -6.0380 C   0  0  0  0  0  0  0  0  0  0  0  0
   26.1768   45.0825   -6.3075 C   0  0  0  0  0  0  0  0  0  0  0  0
   25.7414   46.2025   -5.5653 C   0  0  0  0  0  0  0  0  0  0  0  0
   26.5631   46.7986   -4.5831 C   0  0  0  0  0  0  0  0  0  0  0  0
   27.8533   46.2578   -4.3499 C   0  0  0  0  0  0  0  0  0  0  0  0
   26.0432   47.8709   -3.8866 O   0  0  0  0  0  0  0  0  0  0  0  0
   26.8625   48.4771   -2.8898 C   0  0  0  0  0  0  0  0  0  0  0  0
   26.0414   49.4892   -2.0881 C   0  0  0  0  0  0  0  0  0  0  0  0
   24.8807   49.7798   -2.3822 O   0  0  0  0  0  0  0  0  0  0  0  0
   26.7255   50.1260   -0.8819 C   0  0  0  0  0  0  0  0  0  0  0  0
   25.2807   44.4514   -7.3383 C   0  0  0  0  0  0  0  0  0  0  0  0
   24.0568   44.5363   -7.2508 O   0  0  0  0  0  0  0  0  0  0  0  0
   25.9049   43.8779   -8.3823 N   0  0  0  0  0  0  0  0  0  0  0  0
   25.6711   40.9501  -10.0393 O   0  0  0  0  0  0  0  0  0  0  0  0
   24.7676   41.6526   -8.3425 H   0  0  0  0  0  0  0  0  0  0  0  0
   24.3746   43.9409   -9.7528 H   0  0  0  0  0  0  0  0  0  0  0  0
   23.0741   43.8625   -4.1710 H   0  0  0  0  0  0  0  0  0  0  0  0
   23.6117   42.2100   -3.9190 H   0  0  0  0  0  0  0  0  0  0  0  0
   22.9906   43.1438   -2.5662 H   0  0  0  0  0  0  0  0  0  0  0  0
   20.7493   43.2269   -3.5911 H   0  0  0  0  0  0  0  0  0  0  0  0
   20.0735   40.8644   -3.2906 H   0  0  0  0  0  0  0  0  0  0  0  0
   21.2067   41.3661   -2.0429 H   0  0  0  0  0  0  0  0  0  0  0  0
   21.7568   40.3490   -3.3721 H   0  0  0  0  0  0  0  0  0  0  0  0
   19.5915   43.6643   -5.5425 H   0  0  0  0  0  0  0  0  0  0  0  0
   19.1448   43.2452   -7.9439 H   0  0  0  0  0  0  0  0  0  0  0  0
   20.4952   41.5804   -9.1924 H   0  0  0  0  0  0  0  0  0  0  0  0
   22.7640   40.7466   -5.6285 H   0  0  0  0  0  0  0  0  0  0  0  0
   23.5595   39.9460   -7.7342 H   0  0  0  0  0  0  0  0  0  0  0  0
   22.1101   39.0872   -8.1437 H   0  0  0  0  0  0  0  0  0  0  0  0
   23.4105   39.5764  -10.0394 H   0  0  0  0  0  0  0  0  0  0  0  0
   23.4759   41.7170  -11.1132 H   0  0  0  0  0  0  0  0  0  0  0  0
   22.7358   42.4187   -9.7098 H   0  0  0  0  0  0  0  0  0  0  0  0
   25.8320   43.0118  -11.6941 H   0  0  0  0  0  0  0  0  0  0  0  0
   25.9922   44.6526  -11.1729 H   0  0  0  0  0  0  0  0  0  0  0  0
   27.7674   41.4899  -11.5162 H   0  0  0  0  0  0  0  0  0  0  0  0
   30.1925   41.2332  -11.1517 H   0  0  0  0  0  0  0  0  0  0  0  0
   31.4970   43.0027  -10.0692 H   0  0  0  0  0  0  0  0  0  0  0  0
   27.9336   45.4334   -9.7811 H   0  0  0  0  0  0  0  0  0  0  0  0
   32.3932   44.6406   -9.1809 H   0  0  0  0  0  0  0  0  0  0  0  0
   32.2108   46.2570   -8.6076 H   0  0  0  0  0  0  0  0  0  0  0  0
   30.8555   43.9299   -7.1675 H   0  0  0  0  0  0  0  0  0  0  0  0
   32.4801   44.4321   -6.7954 H   0  0  0  0  0  0  0  0  0  0  0  0
   31.7583   46.6875   -6.1790 H   0  0  0  0  0  0  0  0  0  0  0  0
   30.1247   46.3784   -6.6951 H   0  0  0  0  0  0  0  0  0  0  0  0
   31.5128   44.8602   -4.4269 H   0  0  0  0  0  0  0  0  0  0  0  0
   30.5264   46.2587   -4.1623 H   0  0  0  0  0  0  0  0  0  0  0  0
   27.8018   43.6879   -6.5798 H   0  0  0  0  0  0  0  0  0  0  0  0
   24.7564   46.6104   -5.7403 H   0  0  0  0  0  0  0  0  0  0  0  0
   28.5012   46.6767   -3.5952 H   0  0  0  0  0  0  0  0  0  0  0  0
   27.2562   47.7302   -2.2005 H   0  0  0  0  0  0  0  0  0  0  0  0
   27.7110   48.9824   -3.3561 H   0  0  0  0  0  0  0  0  0  0  0  0
   27.7052   50.5155   -1.1624 H   0  0  0  0  0  0  0  0  0  0  0  0
   26.8578   49.3867   -0.0905 H   0  0  0  0  0  0  0  0  0  0  0  0
   26.1253   50.9484   -0.4895 H   0  0  0  0  0  0  0  0  0  0  0  0
   26.9137   43.8711   -8.3737 H   0  0  0  0  0  0  0  0  0  0  0  0
   25.3569   40.0696   -9.8746 H   0  0  0  0  0  0  0  0  0  0  0  0
  1  2  1  0  0  0  0
  1 45  1  0  0  0  0
  1 46  1  0  0  0  0
  1 47  1  0  0  0  0
  2  3  1  0  0  0  0
  2  4  1  0  0  0  0
  2 48  1  0  0  0  0
  3 49  1  0  0  0  0
  3 50  1  0  0  0  0
  3 51  1  0  0  0  0
  4  9  1  0  0  0  0
  4  5  2  0  0  0  0
  5  6  1  0  0  0  0
  5 52  1  0  0  0  0
  6  7  2  0  0  0  0
  6 53  1  0  0  0  0
  7  8  1  0  0  0  0
  7 54  1  0  0  0  0
  8  9  2  0  0  0  0
  8 10  1  0  0  0  0
  9 55  1  0  0  0  0
 10 11  1  0  0  0  0
 10 56  1  0  0  0  0
 10 57  1  0  0  0  0
 11 12  1  0  0  0  0
 11 58  1  0  0  0  0
 12 13  1  0  0  0  0
 12 59  1  0  0  0  0
 12 60  1  0  0  0  0
 13 43  1  1  0  0  0
 13 14  1  0  0  0  0
 13 42  1  0  0  0  0
 14 44  1  6  0  0  0
 14 41  1  0  0  0  0
 14 15  1  0  0  0  0
 15 16  1  0  0  0  0
 15 61  1  0  0  0  0
 15 62  1  0  0  0  0
 16 21  1  0  0  0  0
 16 17  2  0  0  0  0
 17 18  1  0  0  0  0
 17 63  1  0  0  0  0
 18 19  2  0  0  0  0
 18 64  1  0  0  0  0
 19 20  1  0  0  0  0
 19 65  1  0  0  0  0
 20 21  2  0  0  0  0
 20 22  1  0  0  0  0
 21 66  1  0  0  0  0
 22 23  1  0  0  0  0
 23 24  1  0  0  0  0
 23 67  1  0  0  0  0
 23 68  1  0  0  0  0
 24 25  1  0  0  0  0
 24 69  1  0  0  0  0
 24 70  1  0  0  0  0
 25 26  1  0  0  0  0
 25 71  1  0  0  0  0
 25 72  1  0  0  0  0
 26 27  1  0  0  0  0
 26 73  1  0  0  0  0
 26 74  1  0  0  0  0
 27 28  1  0  0  0  0
 28 33  1  0  0  0  0
 28 29  2  0  0  0  0
 29 30  1  0  0  0  0
 29 75  1  0  0  0  0
 30 31  2  0  0  0  0
 30 39  1  0  0  0  0
 31 32  1  0  0  0  0
 31 76  1  0  0  0  0
 32 33  2  0  0  0  0
 32 34  1  0  0  0  0
 33 77  1  0  0  0  0
 34 35  1  0  0  0  0
 35 36  1  0  0  0  0
 35 78  1  0  0  0  0
 35 79  1  0  0  0  0
 36 37  2  0  0  0  0
 36 38  1  0  0  0  0
 38 80  1  0  0  0  0
 38 81  1  0  0  0  0
 38 82  1  0  0  0  0
 39 40  2  0  0  0  0
 39 41  1  0  0  0  0
 41 83  1  0  0  0  0
 42 84  1  0  0  0  0
M  END
>  <s_m_source_file>
BACE_16.smi

>  <i_m_source_file_index>
1

>  <i_lp_mmshare_version>
42013

>  <i_f3d_flags>
0

>  <s_epik_input>
W0NIM11bQ0hdKFtDSDNdKWMxW2NIXVtjSF1bY0hdYyhbY0hdMSlbQ0gyXVtOSF1bQ0gyXVtDQEBIXShbT0hdKVtDQEhdKFtDSDJdMilbTkhdQyg9TyljKFtjSF1jKFtjSF0zKU9bQ0gyXUMoPU8pW0NIM10pW2NIXWMzT1tDSDJdW0NIMl1bQ0gyXVtDSDJdT2MoW2NIXTQpW2NIXVtjSF1bY0hdYzI0

>  <s_epik_cmdline>
J2VwaWtfcHl0aG9uJywgJy1waCcsICc3LjAnLCAnLXRuJywgJzgnLCAnLW1hJywgJzIwMCcsICctaW1hZScsICc8aW5maWxlLm1hZT4nLCAnLW9tYWUnLCAnPG91dGZpbGUubWFlPic=

>  <r_lp_tautomer_probability>
1

>  <r_epik_Ionization_Penalty>
2.0439

>  <r_epik_Ionization_Penalty_Charging>
0

>  <r_epik_Ionization_Penalty_Neutral>
2.0439

>  <r_epik_State_Penalty>
2.1759

>  <r_epik_Charging_Adjusted_Penalty>
2.17586

>  <i_epik_Tot_Q>
0

>  <i_epik_Tot_abs_Q>
0

>  <s_lp_Force_Field>
OPLS_2005

>  <r_lp_Energy>
40.5038

>  <b_lp_Chiralities_Consistent>
1

>  <s_lp_Variant>
BACE_16.smi:1-2

>  <chiral flag>
1

>  <version>
0

>  <r_i_glide_lipo>
-0.812693

>  <r_i_glide_hbond>
-0.49738

>  <r_i_glide_metal>
-0

>  <r_i_glide_rewards>
0

>  <r_i_glide_erotb>
0.34788

>  <r_i_glide_esite>
-0.101943

>  <s_i_glide_gridfile>
second_dock_grid_2

>  <i_i_glide_lignum>
33

>  <i_i_glide_rotatable_bonds>
10

>  <r_i_docking_score>
-3.27089

>  <r_i_glide_ligand_efficiency>
-0.0778783

>  <r_i_glide_ligand_efficiency_sa>
-0.270707

>  <r_i_glide_ligand_efficiency_ln>
-0.6904

>  <r_glide_XP_GScore>
-5.44679

>  <r_i_glide_gscore>
-5.44679

>  <r_i_glide_evdw>
-43.9979

>  <r_i_glide_ecoul>
-6.02119

>  <r_i_glide_energy>
-50.0191

>  <r_i_glide_einternal>
10.5274

>  <r_i_glide_emodel>
-67.8697

>  <r_glide_XP_HBond>
-1.15218

>  <i_i_glide_confnum>
1

>  <i_i_glide_posenum>
5

>  <r_i_glide_eff_state_penalty>
2.1759

>  <i_glide_XP_PoseRank>
1

>  <chiral flag>
1

$$$$
