BACE_8.smi:1
 OpenBabel10031817133D
Structure written by MMmdl.
 77 79  0  0  1  0  0  0  0  0999 V2000
   20.5277   38.9237   -7.4621 C   0  0  0  0  0  0  0  0  0  0  0  0
   19.7896   39.1856   -8.7929 C   0  0  2  0  0  0  0  0  0  0  0  0
   19.0022   37.9312   -9.2415 C   0  0  0  0  0  0  0  0  0  0  0  0
   17.7777   37.6117   -8.3754 C   0  0  0  0  0  0  0  0  0  0  0  0
   16.8383   38.6636   -8.5171 O   0  0  0  0  0  0  0  0  0  0  0  0
   15.7648   38.5500   -7.5980 C   0  0  0  0  0  0  0  0  0  0  0  0
   14.7620   39.6841   -7.7951 C   0  0  0  0  0  0  0  0  0  0  0  0
   15.2549   41.0418   -7.2771 C   0  0  0  0  0  0  0  0  0  0  0  0
   16.5097   41.5515   -7.9873 C   0  0  0  0  0  0  0  0  0  0  0  0
   16.7867   42.9323   -7.6402 N   0  0  0  0  0  0  0  0  0  0  0  0
   18.0532   43.4403   -7.9268 C   0  0  0  0  0  0  0  0  0  0  0  0
   18.8095   42.9848   -9.0259 C   0  0  0  0  0  0  0  0  0  0  0  0
   20.0475   43.5966   -9.2915 C   0  0  0  0  0  0  0  0  0  0  0  0
   20.4921   44.6198   -8.4315 C   0  0  0  0  0  0  0  0  0  0  0  0
   19.6831   44.9788   -7.3354 C   0  0  0  0  0  0  0  0  0  0  0  0
   18.4801   44.4151   -7.0991 N   0  0  0  0  0  0  0  0  0  0  0  0
   20.2228   46.2091   -6.2512 Cl  0  0  0  0  0  0  0  0  0  0  0  0
   20.8244   43.2355  -10.5222 C   0  0  0  0  0  0  0  0  0  0  0  0
   21.0604   44.0990  -11.3629 O   0  0  0  0  0  0  0  0  0  0  0  0
   21.2279   41.9642  -10.6928 N   0  0  0  0  0  0  0  0  0  0  0  0
   21.5120   40.9761   -9.6452 C   0  0  1  0  0  0  0  0  0  0  0  0
   20.7320   39.6603   -9.9251 C   0  0  0  0  0  0  0  0  0  0  0  0
   23.0434   40.7214   -9.5936 C   0  0  1  0  0  0  0  0  0  0  0  0
   23.9239   41.9888   -9.5144 C   0  0  0  0  0  0  0  0  0  0  0  0
   25.2831   41.7506   -9.9964 N   0  0  0  0  0  0  0  0  0  0  0  0
   26.0067   43.0015  -10.2032 C   0  0  0  0  0  0  0  0  0  0  0  0
   27.5107   42.8508  -10.3293 C   0  0  0  0  0  0  0  0  0  0  0  0
   28.0860   41.8362  -11.1192 C   0  0  0  0  0  0  0  0  0  0  0  0
   29.4874   41.7504  -11.2459 C   0  0  0  0  0  0  0  0  0  0  0  0
   30.3192   42.6848  -10.5948 C   0  0  0  0  0  0  0  0  0  0  0  0
   29.7523   43.7075   -9.8048 C   0  0  0  0  0  0  0  0  0  0  0  0
   28.3474   43.7825   -9.6811 C   0  0  0  0  0  0  0  0  0  0  0  0
   30.6151   44.7641   -9.1200 C   0  0  0  0  0  0  0  0  0  0  0  0
   31.0834   45.8318  -10.1210 C   0  0  0  0  0  0  0  0  0  0  0  0
   31.8005   44.1630   -8.3482 C   0  0  0  0  0  0  0  0  0  0  0  0
   23.3248   39.9652   -8.4394 O   0  0  0  0  0  0  0  0  0  0  0  0
   19.0769   39.9904   -8.6258 H   0  0  0  0  0  0  0  0  0  0  0  0
   21.2086   41.3825   -8.6802 H   0  0  0  0  0  0  0  0  0  0  0  0
   23.3261   40.1501  -10.4765 H   0  0  0  0  0  0  0  0  0  0  0  0
   21.2877   38.1497   -7.5741 H   0  0  0  0  0  0  0  0  0  0  0  0
   19.8474   38.6117   -6.6736 H   0  0  0  0  0  0  0  0  0  0  0  0
   21.0193   39.8217   -7.0875 H   0  0  0  0  0  0  0  0  0  0  0  0
   18.6612   38.0550  -10.2717 H   0  0  0  0  0  0  0  0  0  0  0  0
   19.6718   37.0726   -9.2461 H   0  0  0  0  0  0  0  0  0  0  0  0
   17.3230   36.6750   -8.7015 H   0  0  0  0  0  0  0  0  0  0  0  0
   18.0624   37.4740   -7.3319 H   0  0  0  0  0  0  0  0  0  0  0  0
   15.2600   37.6032   -7.7701 H   0  0  0  0  0  0  0  0  0  0  0  0
   16.1321   38.5509   -6.5720 H   0  0  0  0  0  0  0  0  0  0  0  0
   14.4757   39.7530   -8.8451 H   0  0  0  0  0  0  0  0  0  0  0  0
   13.8556   39.4166   -7.2499 H   0  0  0  0  0  0  0  0  0  0  0  0
   14.4593   41.7686   -7.4079 H   0  0  0  0  0  0  0  0  0  0  0  0
   15.4322   40.9807   -6.2007 H   0  0  0  0  0  0  0  0  0  0  0  0
   17.3604   40.9412   -7.6912 H   0  0  0  0  0  0  0  0  0  0  0  0
   16.3868   41.4647   -9.0658 H   0  0  0  0  0  0  0  0  0  0  0  0
   16.3459   43.2501   -6.7774 H   0  0  0  0  0  0  0  0  0  0  0  0
   18.4344   42.2202   -9.6904 H   0  0  0  0  0  0  0  0  0  0  0  0
   21.4341   45.1190   -8.6059 H   0  0  0  0  0  0  0  0  0  0  0  0
   21.6470   41.7623  -11.5886 H   0  0  0  0  0  0  0  0  0  0  0  0
   21.4262   38.8526  -10.1591 H   0  0  0  0  0  0  0  0  0  0  0  0
   20.1367   39.7822  -10.8308 H   0  0  0  0  0  0  0  0  0  0  0  0
   23.4977   42.7773  -10.1310 H   0  0  0  0  0  0  0  0  0  0  0  0
   23.9367   42.3875   -8.4992 H   0  0  0  0  0  0  0  0  0  0  0  0
   25.2239   41.2466  -10.8791 H   0  0  0  0  0  0  0  0  0  0  0  0
   25.6312   43.5081  -11.0915 H   0  0  0  0  0  0  0  0  0  0  0  0
   25.8113   43.6742   -9.3667 H   0  0  0  0  0  0  0  0  0  0  0  0
   27.4622   41.1153  -11.6253 H   0  0  0  0  0  0  0  0  0  0  0  0
   29.9208   40.9661  -11.8486 H   0  0  0  0  0  0  0  0  0  0  0  0
   31.3892   42.6204  -10.7214 H   0  0  0  0  0  0  0  0  0  0  0  0
   27.9051   44.5751   -9.0910 H   0  0  0  0  0  0  0  0  0  0  0  0
   29.9880   45.2671   -8.3804 H   0  0  0  0  0  0  0  0  0  0  0  0
   30.2329   46.3088  -10.6052 H   0  0  0  0  0  0  0  0  0  0  0  0
   31.7127   45.3978  -10.9001 H   0  0  0  0  0  0  0  0  0  0  0  0
   31.6605   46.6102   -9.6232 H   0  0  0  0  0  0  0  0  0  0  0  0
   31.4754   43.3725   -7.6711 H   0  0  0  0  0  0  0  0  0  0  0  0
   32.2987   44.9220   -7.7461 H   0  0  0  0  0  0  0  0  0  0  0  0
   32.5476   43.7502   -9.0250 H   0  0  0  0  0  0  0  0  0  0  0  0
   24.0747   39.4222   -8.6453 H   0  0  0  0  0  0  0  0  0  0  0  0
  1  2  1  0  0  0  0
  1 40  1  0  0  0  0
  1 41  1  0  0  0  0
  1 42  1  0  0  0  0
  2 37  1  1  0  0  0
  2 22  1  0  0  0  0
  2  3  1  0  0  0  0
  3  4  1  0  0  0  0
  3 43  1  0  0  0  0
  3 44  1  0  0  0  0
  4  5  1  0  0  0  0
  4 45  1  0  0  0  0
  4 46  1  0  0  0  0
  5  6  1  0  0  0  0
  6  7  1  0  0  0  0
  6 47  1  0  0  0  0
  6 48  1  0  0  0  0
  7  8  1  0  0  0  0
  7 49  1  0  0  0  0
  7 50  1  0  0  0  0
  8  9  1  0  0  0  0
  8 51  1  0  0  0  0
  8 52  1  0  0  0  0
  9 10  1  0  0  0  0
  9 53  1  0  0  0  0
  9 54  1  0  0  0  0
 10 11  1  0  0  0  0
 10 55  1  0  0  0  0
 11 16  1  0  0  0  0
 11 12  2  0  0  0  0
 12 13  1  0  0  0  0
 12 56  1  0  0  0  0
 13 14  2  0  0  0  0
 13 18  1  0  0  0  0
 14 15  1  0  0  0  0
 14 57  1  0  0  0  0
 15 16  2  0  0  0  0
 15 17  1  0  0  0  0
 18 19  2  0  0  0  0
 18 20  1  0  0  0  0
 20 21  1  0  0  0  0
 20 58  1  0  0  0  0
 21 38  1  1  0  0  0
 21 22  1  0  0  0  0
 21 23  1  0  0  0  0
 22 59  1  0  0  0  0
 22 60  1  0  0  0  0
 23 39  1  6  0  0  0
 23 24  1  0  0  0  0
 23 36  1  0  0  0  0
 24 25  1  0  0  0  0
 24 61  1  0  0  0  0
 24 62  1  0  0  0  0
 25 26  1  0  0  0  0
 25 63  1  0  0  0  0
 26 27  1  0  0  0  0
 26 64  1  0  0  0  0
 26 65  1  0  0  0  0
 27 32  1  0  0  0  0
 27 28  2  0  0  0  0
 28 29  1  0  0  0  0
 28 66  1  0  0  0  0
 29 30  2  0  0  0  0
 29 67  1  0  0  0  0
 30 31  1  0  0  0  0
 30 68  1  0  0  0  0
 31 32  2  0  0  0  0
 31 33  1  0  0  0  0
 32 69  1  0  0  0  0
 33 34  1  0  0  0  0
 33 35  1  0  0  0  0
 33 70  1  0  0  0  0
 34 71  1  0  0  0  0
 34 72  1  0  0  0  0
 34 73  1  0  0  0  0
 35 74  1  0  0  0  0
 35 75  1  0  0  0  0
 35 76  1  0  0  0  0
 36 77  1  0  0  0  0
M  END
>  <s_m_source_file>
BACE_8.smi

>  <i_m_source_file_index>
1

>  <i_lp_mmshare_version>
42013

>  <i_f3d_flags>
0

>  <s_epik_input>
W05IXTFbQ0gyXVtDSDJdW0NIMl1bQ0gyXU9bQ0gyXVtDSDJdW0NAQEhdKFtDSDNdKVtDSDJdW0NASF0oW05IXUMoPU8pYyhbY0hdYzEyKVtjSF1jKG4yKUNsKVtDQEhdKFtPSF0pW0NIMl1bTkhdW0NIMl1jM1tjSF1bY0hdW2NIXWMoW2NIXTMpW0NIXShbQ0gzXSlbQ0gzXQ==

>  <s_epik_cmdline>
J2VwaWtfcHl0aG9uJywgJy1waCcsICc3LjAnLCAnLXRuJywgJzgnLCAnLW1hJywgJzIwMCcsICctaW1hZScsICc8aW5maWxlLm1hZT4nLCAnLW9tYWUnLCAnPG91dGZpbGUubWFlPic=

>  <r_lp_tautomer_probability>
1

>  <r_epik_Ionization_Penalty>
2.0939

>  <r_epik_Ionization_Penalty_Charging>
0

>  <r_epik_Ionization_Penalty_Neutral>
2.0939

>  <r_epik_State_Penalty>
2.2295

>  <r_epik_Charging_Adjusted_Penalty>
2.2295

>  <i_epik_Tot_Q>
0

>  <i_epik_Tot_abs_Q>
0

>  <s_lp_Force_Field>
OPLS_2005

>  <r_lp_Energy>
36.7598

>  <b_lp_Chiralities_Consistent>
1

>  <s_lp_Variant>
BACE_8.smi:1-2

>  <chiral flag>
1

>  <version>
0

>  <r_i_glide_lipo>
-0.781907

>  <r_i_glide_hbond>
-0.424148

>  <r_i_glide_metal>
-0

>  <r_i_glide_rewards>
0

>  <r_i_glide_erotb>
0.383885

>  <r_i_glide_esite>
-0.0874244

>  <s_i_glide_gridfile>
second_dock_grid_2

>  <i_i_glide_lignum>
17

>  <i_i_glide_rotatable_bonds>
7

>  <r_i_docking_score>
-0.757294

>  <r_i_glide_ligand_efficiency>
-0.0210359

>  <r_i_glide_ligand_efficiency_sa>
-0.0694591

>  <r_i_glide_ligand_efficiency_ln>
-0.165221

>  <r_glide_XP_GScore>
-2.98679

>  <r_i_glide_gscore>
-2.98679

>  <r_i_glide_evdw>
-38.8575

>  <r_i_glide_ecoul>
-10.5546

>  <r_i_glide_energy>
-49.4121

>  <r_i_glide_einternal>
6.0431

>  <r_i_glide_emodel>
-65.6777

>  <r_glide_XP_HBond>
-1.25082

>  <i_i_glide_confnum>
1

>  <i_i_glide_posenum>
17

>  <r_i_glide_eff_state_penalty>
2.2295

>  <i_glide_XP_PoseRank>
1

>  <chiral flag>
1

$$$$
