BACE_17.smi:1
 OpenBabel10031817133D
Structure written by MMmdl.
 62 64  0  0  1  0  0  0  0  0999 V2000
   18.3150   49.0036   -7.0737 C   0  0  0  0  0  0  0  0  0  0  0  0
   19.3402   47.9765   -7.2643 N   0  0  0  0  0  0  0  0  0  0  0  0
   20.4283   48.3359   -8.1794 C   0  0  0  0  0  0  0  0  0  0  0  0
   19.2697   46.8238   -6.5554 C   0  0  0  0  0  0  0  0  0  0  0  0
   18.4617   46.6662   -5.6400 O   0  0  0  0  0  0  0  0  0  0  0  0
   20.2054   45.6972   -6.8963 C   0  0  0  0  0  0  0  0  0  0  0  0
   20.8994   45.0255   -5.8644 C   0  0  0  0  0  0  0  0  0  0  0  0
   20.3289   45.2362   -8.2269 C   0  0  0  0  0  0  0  0  0  0  0  0
   21.1661   44.1436   -8.5284 C   0  0  0  0  0  0  0  0  0  0  0  0
   21.9024   43.5280   -7.4966 C   0  0  0  0  0  0  0  0  0  0  0  0
   21.7488   43.9345   -6.1613 C   0  0  0  0  0  0  0  0  0  0  0  0
   21.2563   43.6211   -9.9267 C   0  0  0  0  0  0  0  0  0  0  0  0
   21.3029   44.3762  -10.8968 O   0  0  0  0  0  0  0  0  0  0  0  0
   21.2023   42.2844  -10.0032 N   0  0  0  0  0  0  0  0  0  0  0  0
   21.2212   41.4677  -11.2096 C   0  0  2  0  0  0  0  0  0  0  0  0
   19.9225   41.6741  -12.0410 C   0  0  1  0  0  0  0  0  0  0  0  0
   20.0600   40.9495  -13.2400 O   0  0  0  0  0  0  0  0  0  0  0  0
   18.5868   41.3068  -11.3539 C   0  0  0  0  0  0  0  0  0  0  0  0
   17.5374   42.1485  -11.7946 O   0  0  0  0  0  0  0  0  0  0  0  0
   21.5764   39.9941  -10.8550 C   0  0  0  0  0  0  0  0  0  0  0  0
   20.7222   39.3601   -9.7628 C   0  0  0  0  0  0  0  0  0  0  0  0
   20.9773   39.6364   -8.4008 C   0  0  0  0  0  0  0  0  0  0  0  0
   20.1429   39.1048   -7.3864 C   0  0  0  0  0  0  0  0  0  0  0  0
   19.0681   38.2712   -7.7566 C   0  0  0  0  0  0  0  0  0  0  0  0
   18.8365   37.9541   -9.1079 C   0  0  0  0  0  0  0  0  0  0  0  0
   19.6674   38.4901  -10.1078 C   0  0  0  0  0  0  0  0  0  0  0  0
   20.3098   39.3501   -6.0412 O   0  0  0  0  0  0  0  0  0  0  0  0
   21.2236   40.3624   -5.6394 C   0  0  0  0  0  0  0  0  0  0  0  0
   21.1019   40.5626   -4.1204 C   0  0  0  0  0  0  0  0  0  0  0  0
   22.0788   41.5843   -3.5028 C   0  0  0  0  0  0  0  0  0  0  0  0
   21.8500   43.0401   -3.9410 C   0  0  0  0  0  0  0  0  0  0  0  0
   22.4459   43.2181   -5.2186 O   0  0  0  0  0  0  0  0  0  0  0  0
   22.0446   41.8362  -11.8259 H   0  0  0  0  0  0  0  0  0  0  0  0
   19.8686   42.7248  -12.3216 H   0  0  0  0  0  0  0  0  0  0  0  0
   17.3249   48.5976   -7.2875 H   0  0  0  0  0  0  0  0  0  0  0  0
   18.4589   49.8670   -7.7236 H   0  0  0  0  0  0  0  0  0  0  0  0
   18.3205   49.3501   -6.0405 H   0  0  0  0  0  0  0  0  0  0  0  0
   21.3741   47.8661   -7.9049 H   0  0  0  0  0  0  0  0  0  0  0  0
   20.6098   49.4111   -8.1798 H   0  0  0  0  0  0  0  0  0  0  0  0
   20.1814   48.0405   -9.1997 H   0  0  0  0  0  0  0  0  0  0  0  0
   20.7805   45.3570   -4.8445 H   0  0  0  0  0  0  0  0  0  0  0  0
   19.7579   45.7001   -9.0188 H   0  0  0  0  0  0  0  0  0  0  0  0
   22.5609   42.6987   -7.7128 H   0  0  0  0  0  0  0  0  0  0  0  0
   21.1085   41.7828   -9.1324 H   0  0  0  0  0  0  0  0  0  0  0  0
   19.9844   40.0271  -13.0405 H   0  0  0  0  0  0  0  0  0  0  0  0
   18.3045   40.2710  -11.5381 H   0  0  0  0  0  0  0  0  0  0  0  0
   18.6621   41.4323  -10.2733 H   0  0  0  0  0  0  0  0  0  0  0  0
   16.7886   41.9838  -11.2402 H   0  0  0  0  0  0  0  0  0  0  0  0
   21.5554   39.3672  -11.7469 H   0  0  0  0  0  0  0  0  0  0  0  0
   22.6129   39.9583  -10.5146 H   0  0  0  0  0  0  0  0  0  0  0  0
   21.8154   40.2682   -8.1508 H   0  0  0  0  0  0  0  0  0  0  0  0
   18.4197   37.8615   -6.9941 H   0  0  0  0  0  0  0  0  0  0  0  0
   18.0163   37.3035   -9.3746 H   0  0  0  0  0  0  0  0  0  0  0  0
   19.4757   38.2451  -11.1424 H   0  0  0  0  0  0  0  0  0  0  0  0
   22.2448   40.0811   -5.9006 H   0  0  0  0  0  0  0  0  0  0  0  0
   20.9719   41.2868   -6.1547 H   0  0  0  0  0  0  0  0  0  0  0  0
   20.0769   40.8422   -3.8744 H   0  0  0  0  0  0  0  0  0  0  0  0
   21.2751   39.6018   -3.6399 H   0  0  0  0  0  0  0  0  0  0  0  0
   21.9594   41.5391   -2.4207 H   0  0  0  0  0  0  0  0  0  0  0  0
   23.1108   41.2904   -3.6994 H   0  0  0  0  0  0  0  0  0  0  0  0
   20.7808   43.2582   -3.9200 H   0  0  0  0  0  0  0  0  0  0  0  0
   22.3376   43.7225   -3.2438 H   0  0  0  0  0  0  0  0  0  0  0  0
  1  2  1  0  0  0  0
  1 35  1  0  0  0  0
  1 36  1  0  0  0  0
  1 37  1  0  0  0  0
  2  3  1  0  0  0  0
  2  4  1  0  0  0  0
  3 38  1  0  0  0  0
  3 39  1  0  0  0  0
  3 40  1  0  0  0  0
  4  5  2  0  0  0  0
  4  6  1  0  0  0  0
  6  7  1  0  0  0  0
  6  8  2  0  0  0  0
  7 11  2  0  0  0  0
  7 41  1  0  0  0  0
  8  9  1  0  0  0  0
  8 42  1  0  0  0  0
  9 10  2  0  0  0  0
  9 12  1  0  0  0  0
 10 11  1  0  0  0  0
 10 43  1  0  0  0  0
 11 32  1  0  0  0  0
 12 13  2  0  0  0  0
 12 14  1  0  0  0  0
 14 15  1  0  0  0  0
 14 44  1  0  0  0  0
 15 33  1  6  0  0  0
 15 16  1  0  0  0  0
 15 20  1  0  0  0  0
 16 34  1  6  0  0  0
 16 17  1  0  0  0  0
 16 18  1  0  0  0  0
 17 45  1  0  0  0  0
 18 19  1  0  0  0  0
 18 46  1  0  0  0  0
 18 47  1  0  0  0  0
 19 48  1  0  0  0  0
 20 21  1  0  0  0  0
 20 49  1  0  0  0  0
 20 50  1  0  0  0  0
 21 26  1  0  0  0  0
 21 22  2  0  0  0  0
 22 23  1  0  0  0  0
 22 51  1  0  0  0  0
 23 24  2  0  0  0  0
 23 27  1  0  0  0  0
 24 25  1  0  0  0  0
 24 52  1  0  0  0  0
 25 26  2  0  0  0  0
 25 53  1  0  0  0  0
 26 54  1  0  0  0  0
 27 28  1  0  0  0  0
 28 29  1  0  0  0  0
 28 55  1  0  0  0  0
 28 56  1  0  0  0  0
 29 30  1  0  0  0  0
 29 57  1  0  0  0  0
 29 58  1  0  0  0  0
 30 31  1  0  0  0  0
 30 59  1  0  0  0  0
 30 60  1  0  0  0  0
 31 32  1  0  0  0  0
 31 61  1  0  0  0  0
 31 62  1  0  0  0  0
M  END
>  <s_m_source_file>
BACE_17.smi

>  <i_m_source_file_index>
1

>  <i_lp_mmshare_version>
42013

>  <i_f3d_flags>
0

>  <s_epik_input>
W0NIM11OKFtDSDNdKUMoPU8pYyhbY0hdYzEyKVtjSF1jKFtjSF0xKU9bQ0gyXVtDSDJdW0NIMl1bQ0gyXU9jM1tjSF1jKFtjSF1bY0hdW2NIXTMpW0NIMl1bQ0BIXShbTkhdQzI9TylbQ0BASF0oW09IXSlbQ0gyXVtPSF0=

>  <s_epik_cmdline>
J2VwaWtfcHl0aG9uJywgJy1waCcsICc3LjAnLCAnLXRuJywgJzgnLCAnLW1hJywgJzIwMCcsICctaW1hZScsICc8aW5maWxlLm1hZT4nLCAnLW9tYWUnLCAnPG91dGZpbGUubWFlPic=

>  <r_lp_tautomer_probability>
1

>  <r_epik_Ionization_Penalty>
0

>  <r_epik_Ionization_Penalty_Charging>
0

>  <r_epik_Ionization_Penalty_Neutral>
0

>  <r_epik_State_Penalty>
-0

>  <r_epik_Charging_Adjusted_Penalty>
0

>  <i_epik_Tot_Q>
0

>  <i_epik_Tot_abs_Q>
0

>  <s_lp_Force_Field>
OPLS_2005

>  <r_lp_Energy>
47.913

>  <b_lp_Chiralities_Consistent>
1

>  <s_lp_Variant>
BACE_17.smi:1-1

>  <chiral flag>
1

>  <version>
0

>  <r_i_glide_lipo>
-0.567811

>  <r_i_glide_hbond>
0

>  <r_i_glide_metal>
-0

>  <r_i_glide_rewards>
-0.490634

>  <r_i_glide_erotb>
0.306172

>  <r_i_glide_esite>
-0.00811059

>  <s_i_glide_gridfile>
second_dock_grid_2

>  <i_i_glide_lignum>
34

>  <i_i_glide_rotatable_bonds>
6

>  <r_i_docking_score>
-5.85385

>  <r_i_glide_ligand_efficiency>
-0.182933

>  <r_i_glide_ligand_efficiency_sa>
-0.580775

>  <r_i_glide_ligand_efficiency_ln>
-1.31084

>  <r_glide_XP_GScore>
-5.85385

>  <r_i_glide_gscore>
-5.85385

>  <r_i_glide_evdw>
-35.8235

>  <r_i_glide_ecoul>
-9.18894

>  <r_i_glide_energy>
-45.0125

>  <r_i_glide_einternal>
8.54372

>  <r_i_glide_emodel>
-52.7756

>  <r_glide_XP_HBond>
-1.21716

>  <i_i_glide_confnum>
1

>  <i_i_glide_posenum>
8

>  <r_i_glide_eff_state_penalty>
-0

>  <i_glide_XP_PoseRank>
1

>  <chiral flag>
1

$$$$
