BACE_1.smi:1
 OpenBabel10031817133D
Structure written by MMmdl.
 87 88  0  0  1  0  0  0  0  0999 V2000
   15.4739   39.8776   -6.6073 C   0  0  0  0  0  0  0  0  0  0  0  0
   14.4741   38.9691   -7.3413 C   0  0  0  0  0  0  0  0  0  0  0  0
   14.7262   38.8649   -8.8559 C   0  0  0  0  0  0  0  0  0  0  0  0
   14.3380   40.1445   -9.6236 C   0  0  0  0  0  0  0  0  0  0  0  0
   14.9609   41.3465   -9.0833 N   0  0  0  0  0  0  0  0  0  0  0  0
   15.1498   42.4958   -9.7491 C   0  0  0  0  0  0  0  0  0  0  0  0
   14.6714   42.7124  -10.8658 O   0  0  0  0  0  0  0  0  0  0  0  0
   16.0090   43.5617   -9.0470 C   0  0  2  0  0  0  0  0  0  0  0  0
   15.0709   44.6144   -8.4372 C   0  0  0  0  0  0  0  0  0  0  0  0
   17.0424   44.2221  -10.0057 C   0  0  0  0  0  0  0  0  0  0  0  0
   17.6113   43.3598  -11.1660 C   0  0  1  0  0  0  0  0  0  0  0  0
   18.4897   42.1498  -10.7308 C   0  0  2  0  0  0  0  0  0  0  0  0
   17.7547   41.1939   -9.7524 C   0  0  0  0  0  0  0  0  0  0  0  0
   18.5927   39.9810   -9.2590 C   0  0  1  0  0  0  0  0  0  0  0  0
   18.0499   39.4309   -7.9206 C   0  0  0  0  0  0  0  0  0  0  0  0
   18.9349   38.3696   -7.2269 C   0  0  0  0  0  0  0  0  0  0  0  0
   20.3794   38.7905   -6.9036 C   0  0  0  0  0  0  0  0  0  0  0  0
   20.4887   40.0027   -5.9703 C   0  0  0  0  0  0  0  0  0  0  0  0
   21.9548   40.3332   -5.6369 C   0  0  0  0  0  0  0  0  0  0  0  0
   22.1035   41.6515   -5.0054 N   0  0  0  0  0  0  0  0  0  0  0  0
   22.5033   42.7841   -5.6428 C   0  0  0  0  0  0  0  0  0  0  0  0
   22.6744   43.8540   -5.0577 O   0  0  0  0  0  0  0  0  0  0  0  0
   22.7941   42.7402   -7.1173 C   0  0  0  0  0  0  0  0  0  0  0  0
   21.7649   42.5416   -8.0607 C   0  0  0  0  0  0  0  0  0  0  0  0
   22.0444   42.5776   -9.4508 C   0  0  0  0  0  0  0  0  0  0  0  0
   23.3726   42.7980   -9.8825 C   0  0  0  0  0  0  0  0  0  0  0  0
   24.4087   43.0243   -8.9470 C   0  0  0  0  0  0  0  0  0  0  0  0
   24.1036   42.9944   -7.5716 C   0  0  0  0  0  0  0  0  0  0  0  0
   25.7214   43.2821   -9.2848 O   0  0  0  0  0  0  0  0  0  0  0  0
   26.0809   43.3482  -10.6595 C   0  0  0  0  0  0  0  0  0  0  0  0
   26.4842   41.9755  -11.2123 C   0  0  0  0  0  0  0  0  0  0  0  0
   20.9633   42.3262  -10.4669 C   0  0  0  0  0  0  0  0  0  0  0  0
   21.2326   41.8854  -11.5855 O   0  0  0  0  0  0  0  0  0  0  0  0
   19.7130   42.6150  -10.0701 N   0  0  0  0  0  0  0  0  0  0  0  0
   21.8545   41.6577   -3.5542 C   0  0  0  0  0  0  0  0  0  0  0  0
   20.6207   40.8306   -3.1542 C   0  0  0  0  0  0  0  0  0  0  0  0
   18.6851   38.8923  -10.3415 C   0  0  0  0  0  0  0  0  0  0  0  0
   16.5687   42.9469  -12.0303 O   0  0  0  0  0  0  0  0  0  0  0  0
   16.5429   43.0924   -8.2202 H   0  0  0  0  0  0  0  0  0  0  0  0
   18.2388   44.0151  -11.7720 H   0  0  0  0  0  0  0  0  0  0  0  0
   18.7537   41.5824  -11.6233 H   0  0  0  0  0  0  0  0  0  0  0  0
   19.6038   40.3182   -9.0520 H   0  0  0  0  0  0  0  0  0  0  0  0
   15.2979   39.8475   -5.5317 H   0  0  0  0  0  0  0  0  0  0  0  0
   15.3778   40.9209   -6.9126 H   0  0  0  0  0  0  0  0  0  0  0  0
   16.5036   39.5646   -6.7799 H   0  0  0  0  0  0  0  0  0  0  0  0
   14.5331   37.9699   -6.9064 H   0  0  0  0  0  0  0  0  0  0  0  0
   13.4579   39.3197   -7.1542 H   0  0  0  0  0  0  0  0  0  0  0  0
   15.7750   38.6156   -9.0193 H   0  0  0  0  0  0  0  0  0  0  0  0
   14.1486   38.0252   -9.2455 H   0  0  0  0  0  0  0  0  0  0  0  0
   14.6413   40.0520  -10.6674 H   0  0  0  0  0  0  0  0  0  0  0  0
   13.2577   40.2880   -9.6262 H   0  0  0  0  0  0  0  0  0  0  0  0
   15.3768   41.2679   -8.1655 H   0  0  0  0  0  0  0  0  0  0  0  0
   14.3034   44.1557   -7.8115 H   0  0  0  0  0  0  0  0  0  0  0  0
   14.5634   45.1737   -9.2223 H   0  0  0  0  0  0  0  0  0  0  0  0
   15.6145   45.3201   -7.8128 H   0  0  0  0  0  0  0  0  0  0  0  0
   16.6023   45.1248  -10.4346 H   0  0  0  0  0  0  0  0  0  0  0  0
   17.8838   44.5924   -9.4198 H   0  0  0  0  0  0  0  0  0  0  0  0
   17.4403   41.7805   -8.8884 H   0  0  0  0  0  0  0  0  0  0  0  0
   16.8306   40.8278  -10.2014 H   0  0  0  0  0  0  0  0  0  0  0  0
   17.8986   40.2563   -7.2238 H   0  0  0  0  0  0  0  0  0  0  0  0
   17.0569   39.0104   -8.0846 H   0  0  0  0  0  0  0  0  0  0  0  0
   18.4505   38.0689   -6.2975 H   0  0  0  0  0  0  0  0  0  0  0  0
   18.9697   37.4737   -7.8448 H   0  0  0  0  0  0  0  0  0  0  0  0
   20.8852   37.9454   -6.4389 H   0  0  0  0  0  0  0  0  0  0  0  0
   20.9289   38.9910   -7.8242 H   0  0  0  0  0  0  0  0  0  0  0  0
   19.9974   40.8613   -6.4223 H   0  0  0  0  0  0  0  0  0  0  0  0
   19.9410   39.8032   -5.0488 H   0  0  0  0  0  0  0  0  0  0  0  0
   22.3366   39.5744   -4.9543 H   0  0  0  0  0  0  0  0  0  0  0  0
   22.5784   40.2457   -6.5257 H   0  0  0  0  0  0  0  0  0  0  0  0
   20.7596   42.3794   -7.7087 H   0  0  0  0  0  0  0  0  0  0  0  0
   23.5792   42.7811  -10.9415 H   0  0  0  0  0  0  0  0  0  0  0  0
   24.8936   43.1715   -6.8585 H   0  0  0  0  0  0  0  0  0  0  0  0
   25.2917   43.8022  -11.2576 H   0  0  0  0  0  0  0  0  0  0  0  0
   26.9335   44.0216  -10.7314 H   0  0  0  0  0  0  0  0  0  0  0  0
   26.8804   42.0662  -12.2239 H   0  0  0  0  0  0  0  0  0  0  0  0
   25.6303   41.3042  -11.2627 H   0  0  0  0  0  0  0  0  0  0  0  0
   27.2565   41.5069  -10.6028 H   0  0  0  0  0  0  0  0  0  0  0  0
   19.6008   43.0123   -9.1499 H   0  0  0  0  0  0  0  0  0  0  0  0
   22.7370   41.2767   -3.0372 H   0  0  0  0  0  0  0  0  0  0  0  0
   21.7191   42.6778   -3.1886 H   0  0  0  0  0  0  0  0  0  0  0  0
   20.5193   40.8084   -2.0703 H   0  0  0  0  0  0  0  0  0  0  0  0
   20.6937   39.7969   -3.4896 H   0  0  0  0  0  0  0  0  0  0  0  0
   19.7041   41.2569   -3.5640 H   0  0  0  0  0  0  0  0  0  0  0  0
   17.7067   38.4522  -10.5354 H   0  0  0  0  0  0  0  0  0  0  0  0
   19.3589   38.0860  -10.0514 H   0  0  0  0  0  0  0  0  0  0  0  0
   19.0609   39.2917  -11.2845 H   0  0  0  0  0  0  0  0  0  0  0  0
   16.0241   42.3421  -11.5478 H   0  0  0  0  0  0  0  0  0  0  0  0
  1  2  1  0  0  0  0
  1 43  1  0  0  0  0
  1 44  1  0  0  0  0
  1 45  1  0  0  0  0
  2  3  1  0  0  0  0
  2 46  1  0  0  0  0
  2 47  1  0  0  0  0
  3  4  1  0  0  0  0
  3 48  1  0  0  0  0
  3 49  1  0  0  0  0
  4  5  1  0  0  0  0
  4 50  1  0  0  0  0
  4 51  1  0  0  0  0
  5  6  1  0  0  0  0
  5 52  1  0  0  0  0
  6  7  2  0  0  0  0
  6  8  1  0  0  0  0
  8 39  1  1  0  0  0
  8  9  1  0  0  0  0
  8 10  1  0  0  0  0
  9 53  1  0  0  0  0
  9 54  1  0  0  0  0
  9 55  1  0  0  0  0
 10 11  1  0  0  0  0
 10 56  1  0  0  0  0
 10 57  1  0  0  0  0
 11 40  1  6  0  0  0
 11 12  1  0  0  0  0
 11 38  1  0  0  0  0
 12 41  1  6  0  0  0
 12 34  1  0  0  0  0
 12 13  1  0  0  0  0
 13 14  1  0  0  0  0
 13 58  1  0  0  0  0
 13 59  1  0  0  0  0
 14 42  1  1  0  0  0
 14 15  1  0  0  0  0
 14 37  1  0  0  0  0
 15 16  1  0  0  0  0
 15 60  1  0  0  0  0
 15 61  1  0  0  0  0
 16 17  1  0  0  0  0
 16 62  1  0  0  0  0
 16 63  1  0  0  0  0
 17 18  1  0  0  0  0
 17 64  1  0  0  0  0
 17 65  1  0  0  0  0
 18 19  1  0  0  0  0
 18 66  1  0  0  0  0
 18 67  1  0  0  0  0
 19 20  1  0  0  0  0
 19 68  1  0  0  0  0
 19 69  1  0  0  0  0
 20 21  1  0  0  0  0
 20 35  1  0  0  0  0
 21 22  2  0  0  0  0
 21 23  1  0  0  0  0
 23 28  1  0  0  0  0
 23 24  2  0  0  0  0
 24 25  1  0  0  0  0
 24 70  1  0  0  0  0
 25 26  2  0  0  0  0
 25 32  1  0  0  0  0
 26 27  1  0  0  0  0
 26 71  1  0  0  0  0
 27 28  2  0  0  0  0
 27 29  1  0  0  0  0
 28 72  1  0  0  0  0
 29 30  1  0  0  0  0
 30 31  1  0  0  0  0
 30 73  1  0  0  0  0
 30 74  1  0  0  0  0
 31 75  1  0  0  0  0
 31 76  1  0  0  0  0
 31 77  1  0  0  0  0
 32 33  2  0  0  0  0
 32 34  1  0  0  0  0
 34 78  1  0  0  0  0
 35 36  1  0  0  0  0
 35 79  1  0  0  0  0
 35 80  1  0  0  0  0
 36 81  1  0  0  0  0
 36 82  1  0  0  0  0
 36 83  1  0  0  0  0
 37 84  1  0  0  0  0
 37 85  1  0  0  0  0
 37 86  1  0  0  0  0
 38 87  1  0  0  0  0
M  END
>  <s_m_source_file>
BACE_1.smi

>  <i_m_source_file_index>
1

>  <i_lp_mmshare_version>
42013

>  <i_f3d_flags>
0

>  <s_epik_input>
W0NIM11bQ0gyXVtDSDJdW0NIMl1bTkhdQyg9TylbQ0BIXShbQ0gzXSlbQ0gyXVtDQEhdKFtPSF0pW0NAQEhdKFtOSF1DKD1PKWMoW2NIXWMxMilbY0hdYyhbY0hdMilPW0NIMl1bQ0gzXSlbQ0gyXVtDQEhdKFtDSDNdKVtDSDJdW0NIMl1bQ0gyXVtDSDJdW0NIMl1OKEMxPU8pW0NIMl1bQ0gzXQ==

>  <s_epik_cmdline>
J2VwaWtfcHl0aG9uJywgJy1waCcsICc3LjAnLCAnLXRuJywgJzgnLCAnLW1hJywgJzIwMCcsICctaW1hZScsICc8aW5maWxlLm1hZT4nLCAnLW9tYWUnLCAnPG91dGZpbGUubWFlPic=

>  <r_lp_tautomer_probability>
1

>  <r_epik_Ionization_Penalty>
0

>  <r_epik_Ionization_Penalty_Charging>
0

>  <r_epik_Ionization_Penalty_Neutral>
0

>  <r_epik_State_Penalty>
-0

>  <r_epik_Charging_Adjusted_Penalty>
0

>  <i_epik_Tot_Q>
0

>  <i_epik_Tot_abs_Q>
0

>  <s_lp_Force_Field>
OPLS_2005

>  <r_lp_Energy>
40.9193

>  <b_lp_Chiralities_Consistent>
1

>  <s_lp_Variant>
BACE_1.smi:1-1

>  <chiral flag>
1

>  <version>
0

>  <r_i_glide_lipo>
-0.830122

>  <r_i_glide_hbond>
-0.11581

>  <r_i_glide_metal>
-0

>  <r_i_glide_rewards>
-0.151207

>  <r_i_glide_erotb>
0.583496

>  <r_i_glide_esite>
-0.0337226

>  <s_i_glide_gridfile>
second_dock_grid_2

>  <i_i_glide_lignum>
1

>  <i_i_glide_rotatable_bonds>
12

>  <r_i_docking_score>
-3.26911

>  <r_i_glide_ligand_efficiency>
-0.0860292

>  <r_i_glide_ligand_efficiency_sa>
-0.289228

>  <r_i_glide_ligand_efficiency_ln>
-0.704916

>  <r_glide_XP_GScore>
-3.26911

>  <r_i_glide_gscore>
-3.26911

>  <r_i_glide_evdw>
-42.0939

>  <r_i_glide_ecoul>
-10.0336

>  <r_i_glide_energy>
-52.1276

>  <r_i_glide_einternal>
0

>  <r_i_glide_emodel>
-75.0559

>  <r_glide_XP_HBond>
-0.7

>  <i_i_glide_confnum>
1

>  <i_i_glide_posenum>
16

>  <r_i_glide_eff_state_penalty>
-0

>  <i_glide_XP_PoseRank>
2

>  <chiral flag>
1

$$$$
