BACE_15.smi:1
                    3D
 Structure written by MMmdl.
 83 86  0  0  1  0            999 V2000
   -2.4813    2.5526   -5.1622 C   0  0  0  0  0  0
   -0.9588    2.3452   -5.1918 C   0  0  0  0  0  0
   -0.5838    0.9761   -5.7817 C   0  0  0  0  0  0
   -0.3353    2.5538   -3.8174 C   0  0  0  0  0  0
    0.5946    3.5962   -3.6148 C   0  0  0  0  0  0
    1.1786    3.7913   -2.3487 C   0  0  0  0  0  0
    0.8379    2.9454   -1.2766 C   0  0  0  0  0  0
   -0.0899    1.9005   -1.4683 C   0  0  0  0  0  0
   -0.6756    1.7101   -2.7369 C   0  0  0  0  0  0
   -0.4546    0.9784   -0.3188 C   0  0  0  0  0  0
    0.2273   -0.3296   -0.4163 N   0  3  0  0  0  0
    1.6954   -0.2843   -0.2466 C   0  0  0  0  0  0
    2.3106   -1.6987   -0.2911 C   0  0  2  0  0  0
    3.8372   -1.7245   -0.0105 C   0  0  2  0  0  0
    4.4356   -3.1581   -0.0044 C   0  0  0  0  0  0
    5.8913   -3.2057    0.4360 C   0  0  0  0  0  0
    6.8992   -2.7433   -0.4331 C   0  0  0  0  0  0
    8.2392   -2.7242   -0.0079 C   0  0  0  0  0  0
    8.5707   -3.1535    1.2906 C   0  0  0  0  0  0
    7.5771   -3.6217    2.1748 C   0  0  0  0  0  0
    6.2331   -3.6677    1.7263 C   0  0  0  0  0  0
    8.0009   -3.9827    3.4360 O   0  0  0  0  0  0
    7.0645   -4.4650    4.3942 C   0  0  0  0  0  0
    7.6731   -4.2460    5.7879 C   0  0  0  0  0  0
    7.6517   -2.7644    6.2076 C   0  0  0  0  0  0
    6.3552   -2.3491    6.9310 C   0  0  0  0  0  0
    6.1651   -0.9370    6.8686 O   0  0  0  0  0  0
    5.6813   -0.3755    5.7028 C   0  0  0  0  0  0
    5.8624    1.0122    5.5343 C   0  0  0  0  0  0
    5.4190    1.6669    4.3663 C   0  0  0  0  0  0
    4.7616    0.9300    3.3598 C   0  0  0  0  0  0
    4.5610   -0.4582    3.5128 C   0  0  0  0  0  0
    5.0124   -1.0996    4.6850 C   0  0  0  0  0  0
    3.8567   -1.2580    2.4587 C   0  0  0  0  0  0
    3.0807   -2.1632    2.7652 O   0  0  0  0  0  0
    4.2093   -0.9714    1.1936 N   0  0  0  0  0  0
    5.6223    3.1630    4.2135 C   0  0  0  0  0  0
    5.8182    3.5430    2.8601 O   0  0  0  0  0  0
    6.0157    4.9378    2.7091 C   0  0  0  0  0  0
    2.0927   -2.2076   -1.5935 O   0  0  0  0  0  0
    1.7927   -2.3441    0.4195 H   0  0  0  0  0  0
    4.3267   -1.1789   -0.8187 H   0  0  0  0  0  0
   -2.7330    3.5466   -4.7911 H   0  0  0  0  0  0
   -2.9763    1.8221   -4.5218 H   0  0  0  0  0  0
   -2.9085    2.4573   -6.1607 H   0  0  0  0  0  0
   -0.5474    3.1035   -5.8596 H   0  0  0  0  0  0
    0.4986    0.8627   -5.8476 H   0  0  0  0  0  0
   -0.9878    0.8592   -6.7876 H   0  0  0  0  0  0
   -0.9683    0.1556   -5.1755 H   0  0  0  0  0  0
    0.8658    4.2514   -4.4297 H   0  0  0  0  0  0
    1.8899    4.5905   -2.2006 H   0  0  0  0  0  0
    1.2936    3.1000   -0.3095 H   0  0  0  0  0  0
   -1.3857    0.9090   -2.8817 H   0  0  0  0  0  0
   -0.2200    1.4484    0.6373 H   0  0  0  0  0  0
   -1.5321    0.8107   -0.3290 H   0  0  0  0  0  0
   -0.1500   -0.9347    0.2987 H   0  0  0  0  0  0
    2.1464    0.3426   -1.0169 H   0  0  0  0  0  0
    1.8993    0.1938    0.7116 H   0  0  0  0  0  0
    3.8480   -3.8034    0.6500 H   0  0  0  0  0  0
    4.3629   -3.5988   -0.9992 H   0  0  0  0  0  0
    6.6450   -2.3894   -1.4216 H   0  0  0  0  0  0
    9.0118   -2.3651   -0.6716 H   0  0  0  0  0  0
    9.6002   -3.1164    1.6155 H   0  0  0  0  0  0
    5.4389   -4.0223    2.3637 H   0  0  0  0  0  0
    6.1037   -3.9568    4.3550 H   0  0  0  0  0  0
    6.8887   -5.5259    4.2139 H   0  0  0  0  0  0
    7.1443   -4.8463    6.5291 H   0  0  0  0  0  0
    8.7008   -4.6116    5.7839 H   0  0  0  0  0  0
    8.4934   -2.5606    6.8702 H   0  0  0  0  0  0
    7.8172   -2.1401    5.3289 H   0  0  0  0  0  0
    5.4849   -2.9030    6.5840 H   0  0  0  0  0  0
    6.4450   -2.6206    7.9830 H   0  0  0  0  0  0
    6.3596    1.5778    6.3091 H   0  0  0  0  0  0
    4.4062    1.4353    2.4733 H   0  0  0  0  0  0
    4.8306   -2.1572    4.7761 H   0  0  0  0  0  0
    4.8710   -0.2197    1.0614 H   0  0  0  0  0  0
    4.7474    3.6723    4.6201 H   0  0  0  0  0  0
    6.4846    3.4709    4.8072 H   0  0  0  0  0  0
    6.1530    5.1759    1.6545 H   0  0  0  0  0  0
    6.9038    5.2705    3.2477 H   0  0  0  0  0  0
    5.1545    5.5003    3.0721 H   0  0  0  0  0  0
    2.4400   -3.0860   -1.6364 H   0  0  0  0  0  0
    0.0231   -0.7342   -1.3193 H   0  0  0  0  0  0
  1  2  1  0  0  0
  1 43  1  0  0  0
  1 44  1  0  0  0
  1 45  1  0  0  0
  2  3  1  0  0  0
  2  4  1  0  0  0
  2 46  1  0  0  0
  3 47  1  0  0  0
  3 48  1  0  0  0
  3 49  1  0  0  0
  4  9  1  0  0  0
  4  5  2  0  0  0
  5  6  1  0  0  0
  5 50  1  0  0  0
  6  7  2  0  0  0
  6 51  1  0  0  0
  7  8  1  0  0  0
  7 52  1  0  0  0
  8  9  2  0  0  0
  8 10  1  0  0  0
  9 53  1  0  0  0
 10 11  1  0  0  0
 10 54  1  0  0  0
 10 55  1  0  0  0
 11 12  1  0  0  0
 11 56  1  0  0  0
 11 83  1  0  0  0
 12 13  1  0  0  0
 12 57  1  0  0  0
 12 58  1  0  0  0
 13 41  1  0  0  0
 13 14  1  0  0  0
 13 40  1  0  0  0
 14 42  1  0  0  0
 14 36  1  0  0  0
 14 15  1  0  0  0
 15 16  1  0  0  0
 15 59  1  0  0  0
 15 60  1  0  0  0
 16 21  1  0  0  0
 16 17  2  0  0  0
 17 18  1  0  0  0
 17 61  1  0  0  0
 18 19  2  0  0  0
 18 62  1  0  0  0
 19 20  1  0  0  0
 19 63  1  0  0  0
 20 21  2  0  0  0
 20 22  1  0  0  0
 21 64  1  0  0  0
 22 23  1  0  0  0
 23 24  1  0  0  0
 23 65  1  0  0  0
 23 66  1  0  0  0
 24 25  1  0  0  0
 24 67  1  0  0  0
 24 68  1  0  0  0
 25 26  1  0  0  0
 25 69  1  0  0  0
 25 70  1  0  0  0
 26 27  1  0  0  0
 26 71  1  0  0  0
 26 72  1  0  0  0
 27 28  1  0  0  0
 28 33  1  0  0  0
 28 29  2  0  0  0
 29 30  1  0  0  0
 29 73  1  0  0  0
 30 31  2  0  0  0
 30 37  1  0  0  0
 31 32  1  0  0  0
 31 74  1  0  0  0
 32 33  2  0  0  0
 32 34  1  0  0  0
 33 75  1  0  0  0
 34 35  2  0  0  0
 34 36  1  0  0  0
 36 76  1  0  0  0
 37 38  1  0  0  0
 37 77  1  0  0  0
 37 78  1  0  0  0
 38 39  1  0  0  0
 39 79  1  0  0  0
 39 80  1  0  0  0
 39 81  1  0  0  0
 40 82  1  0  0  0
M  CHG  1  11   1
M  END
> <i_f3d_flags>
0

> <chiral flag>
1

> <version>
0

> <s_i_glide_gridfile>
base1a_gride_6

> <i_i_glide_lignum>
31

> <i_i_glide_rotatable_bonds>
9

> <r_i_docking_score>
-0.778041749747726

> <r_i_glide_ligand_efficiency>
-0.0194510437436931

> <r_i_glide_ligand_efficiency_sa>
-0.0665216337971463

> <r_i_glide_ligand_efficiency_ln>
-0.165933408474617

> <r_glide_XP_GScore>
-2.95394174974773

> <r_i_glide_gscore>
-2.95394174974773

> <r_i_glide_evdw>
-31.0248394012451

> <r_i_glide_ecoul>
-6.24606895446777

> <r_i_glide_energy>
-37.2709083557129

> <r_i_glide_einternal>
9.90891933441162

> <r_i_glide_emodel>
-41.9913976591964

> <r_glide_XP_HBond>
-1.33

> <i_i_glide_confnum>
1

> <i_i_glide_posenum>
7

> <r_i_glide_eff_state_penalty>
2.1759

> <i_glide_XP_PoseRank>
1

> <s_m_source_file>
glide-dock_pose_2-0016_raw.maegz

> <i_m_source_file_index>
1

> <i_lp_mmshare_version>
42013

> <s_epik_input>
W0NIM11bQ0hdKFtDSDNdKWMxW2NIXVtjSF1bY0hdYyhbY0hdMSlbQ0gyXVtOSF1bQ0gyXVtDQEBIXShbT0hdKVtDQEhdKFtDSDJdMilbTkhdQyg9TyljKFtjSF0zKVtjSF1jKFtDSDJdT1tDSDNdKVtjSF1jM09bQ0gyXVtDSDJdW0NIMl1bQ0gyXU9jKFtjSF00KVtjSF1bY0hdW2NIXWMyNA==

> <s_epik_cmdline>
J2VwaWtfcHl0aG9uJywgJy1waCcsICc3LjAnLCAnLXRuJywgJzgnLCAnLW1hJywgJzIwMCcsICctaW1hZScsICc8aW5maWxlLm1hZT4nLCAnLW9tYWUnLCAnPG91dGZpbGUubWFlPic=

> <r_lp_tautomer_probability>
1

> <r_epik_Ionization_Penalty>
0.0191203

> <r_epik_Ionization_Penalty_Charging>
0.0191194

> <r_epik_Ionization_Penalty_Neutral>
8.76464e-07

> <r_epik_State_Penalty>
0.0152524

> <r_epik_Charging_Adjusted_Penalty>
0.0343718

> <i_epik_Tot_Q>
1

> <i_epik_Tot_abs_Q>
1

> <i_f3d_flags>
0

> <s_lp_Force_Field>
OPLS_2005

> <r_lp_Energy>
33.7913

> <b_lp_Chiralities_Consistent>
1

> <s_lp_Variant>
BACE_15.smi:1-1

$$$$
BACE_15.smi:1
                    3D
 Structure written by MMmdl.
 82 85  0  0  1  0            999 V2000
    0.6687    1.8773   -6.0273 C   0  0  0  0  0  0
   -0.5645    1.9649   -5.1146 C   0  0  0  0  0  0
   -1.7062    2.7530   -5.7747 C   0  0  0  0  0  0
   -0.2110    2.5299   -3.7447 C   0  0  0  0  0  0
    0.3031    3.8388   -3.6153 C   0  0  0  0  0  0
    0.6310    4.3508   -2.3456 C   0  0  0  0  0  0
    0.4502    3.5576   -1.1971 C   0  0  0  0  0  0
   -0.0595    2.2482   -1.3141 C   0  0  0  0  0  0
   -0.3949    1.7418   -2.5884 C   0  0  0  0  0  0
   -0.2506    1.3968   -0.0697 C   0  0  0  0  0  0
    0.2961    0.0464   -0.1948 N   0  0  0  0  0  0
    1.7566   -0.0017   -0.2383 C   0  0  0  0  0  0
    2.2664   -1.4554   -0.3268 C   0  0  2  0  0  0
    3.7875   -1.6023   -0.0558 C   0  0  2  0  0  0
    4.2739   -3.0777   -0.0850 C   0  0  0  0  0  0
    5.7306   -3.2477    0.3216 C   0  0  0  0  0  0
    6.7529   -2.8783   -0.5747 C   0  0  0  0  0  0
    8.0998   -2.9803   -0.1846 C   0  0  0  0  0  0
    8.4250   -3.4363    1.1064 C   0  0  0  0  0  0
    7.4171   -3.8118    2.0182 C   0  0  0  0  0  0
    6.0632   -3.7375    1.6043 C   0  0  0  0  0  0
    7.8421   -4.2070    3.2691 O   0  0  0  0  0  0
    6.8980   -4.6146    4.2547 C   0  0  0  0  0  0
    7.5456   -4.4028    5.6323 C   0  0  0  0  0  0
    7.6100   -2.9152    6.0266 C   0  0  0  0  0  0
    6.3804   -2.4372    6.8245 C   0  0  0  0  0  0
    6.2637   -1.0161    6.7856 O   0  0  0  0  0  0
    5.7508   -0.4154    5.6521 C   0  0  0  0  0  0
    5.9194    0.9790    5.5280 C   0  0  0  0  0  0
    5.4424    1.6707    4.3946 C   0  0  0  0  0  0
    4.7717    0.9636    3.3757 C   0  0  0  0  0  0
    4.5848   -0.4303    3.4851 C   0  0  0  0  0  0
    5.0643   -1.1078    4.6243 C   0  0  0  0  0  0
    3.8606   -1.1994    2.4226 C   0  0  0  0  0  0
    3.0633   -2.0884    2.7215 O   0  0  0  0  0  0
    4.2170   -0.9031    1.1611 N   0  0  0  0  0  0
    5.6164    3.1745    4.2937 C   0  0  0  0  0  0
    5.8276    3.6009    2.9568 O   0  0  0  0  0  0
    5.9538    5.0077    2.8472 C   0  0  0  0  0  0
    2.0203   -1.8911   -1.6496 O   0  0  0  0  0  0
    1.7071   -2.0885    0.3633 H   0  0  0  0  0  0
    4.3127   -1.0774   -0.8554 H   0  0  0  0  0  0
    1.4514    1.2718   -5.5694 H   0  0  0  0  0  0
    1.0873    2.8622   -6.2357 H   0  0  0  0  0  0
    0.4161    1.4180   -6.9832 H   0  0  0  0  0  0
   -0.9241    0.9455   -4.9686 H   0  0  0  0  0  0
   -2.5930    2.7604   -5.1403 H   0  0  0  0  0  0
   -1.9885    2.3073   -6.7287 H   0  0  0  0  0  0
   -1.4238    3.7887   -5.9652 H   0  0  0  0  0  0
    0.4481    4.4559   -4.4895 H   0  0  0  0  0  0
    1.0234    5.3529   -2.2530 H   0  0  0  0  0  0
    0.7064    3.9576   -0.2269 H   0  0  0  0  0  0
   -0.7891    0.7399   -2.6768 H   0  0  0  0  0  0
    0.1822    1.8990    0.7964 H   0  0  0  0  0  0
   -1.3226    1.3350    0.1186 H   0  0  0  0  0  0
   -0.0482   -0.5357    0.5623 H   0  0  0  0  0  0
    2.1421    0.5832   -1.0745 H   0  0  0  0  0  0
    2.1375    0.4733    0.6653 H   0  0  0  0  0  0
    3.6514   -3.6887    0.5696 H   0  0  0  0  0  0
    4.1461   -3.4932   -1.0852 H   0  0  0  0  0  0
    6.5053   -2.5051   -1.5577 H   0  0  0  0  0  0
    8.8839   -2.6944   -0.8700 H   0  0  0  0  0  0
    9.4620   -3.4928    1.4034 H   0  0  0  0  0  0
    5.2561   -4.0201    2.2612 H   0  0  0  0  0  0
    5.9653   -4.0570    4.2259 H   0  0  0  0  0  0
    6.6607   -5.6675    4.1001 H   0  0  0  0  0  0
    7.0018   -4.9627    6.3941 H   0  0  0  0  0  0
    8.5523   -4.8220    5.6157 H   0  0  0  0  0  0
    8.5005   -2.7354    6.6298 H   0  0  0  0  0  0
    7.7429   -2.3108    5.1286 H   0  0  0  0  0  0
    5.4617   -2.9355    6.5186 H   0  0  0  0  0  0
    6.5108   -2.7263    7.8676 H   0  0  0  0  0  0
    6.4284    1.5212    6.3116 H   0  0  0  0  0  0
    4.3908    1.4955    2.5155 H   0  0  0  0  0  0
    4.8929   -2.1693    4.6803 H   0  0  0  0  0  0
    4.8957   -0.1662    1.0348 H   0  0  0  0  0  0
    4.7210    3.6485    4.6988 H   0  0  0  0  0  0
    6.4591    3.4852    4.9136 H   0  0  0  0  0  0
    6.1173    5.2808    1.8048 H   0  0  0  0  0  0
    6.8007    5.3746    3.4287 H   0  0  0  0  0  0
    5.0490    5.5122    3.1888 H   0  0  0  0  0  0
    1.1008   -1.7718   -1.8335 H   0  0  0  0  0  0
  1  2  1  0  0  0
  1 43  1  0  0  0
  1 44  1  0  0  0
  1 45  1  0  0  0
  2  3  1  0  0  0
  2  4  1  0  0  0
  2 46  1  0  0  0
  3 47  1  0  0  0
  3 48  1  0  0  0
  3 49  1  0  0  0
  4  9  1  0  0  0
  4  5  2  0  0  0
  5  6  1  0  0  0
  5 50  1  0  0  0
  6  7  2  0  0  0
  6 51  1  0  0  0
  7  8  1  0  0  0
  7 52  1  0  0  0
  8  9  2  0  0  0
  8 10  1  0  0  0
  9 53  1  0  0  0
 10 11  1  0  0  0
 10 54  1  0  0  0
 10 55  1  0  0  0
 11 12  1  0  0  0
 11 56  1  0  0  0
 12 13  1  0  0  0
 12 57  1  0  0  0
 12 58  1  0  0  0
 13 41  1  0  0  0
 13 14  1  0  0  0
 13 40  1  0  0  0
 14 42  1  0  0  0
 14 36  1  0  0  0
 14 15  1  0  0  0
 15 16  1  0  0  0
 15 59  1  0  0  0
 15 60  1  0  0  0
 16 21  1  0  0  0
 16 17  2  0  0  0
 17 18  1  0  0  0
 17 61  1  0  0  0
 18 19  2  0  0  0
 18 62  1  0  0  0
 19 20  1  0  0  0
 19 63  1  0  0  0
 20 21  2  0  0  0
 20 22  1  0  0  0
 21 64  1  0  0  0
 22 23  1  0  0  0
 23 24  1  0  0  0
 23 65  1  0  0  0
 23 66  1  0  0  0
 24 25  1  0  0  0
 24 67  1  0  0  0
 24 68  1  0  0  0
 25 26  1  0  0  0
 25 69  1  0  0  0
 25 70  1  0  0  0
 26 27  1  0  0  0
 26 71  1  0  0  0
 26 72  1  0  0  0
 27 28  1  0  0  0
 28 33  1  0  0  0
 28 29  2  0  0  0
 29 30  1  0  0  0
 29 73  1  0  0  0
 30 31  2  0  0  0
 30 37  1  0  0  0
 31 32  1  0  0  0
 31 74  1  0  0  0
 32 33  2  0  0  0
 32 34  1  0  0  0
 33 75  1  0  0  0
 34 35  2  0  0  0
 34 36  1  0  0  0
 36 76  1  0  0  0
 37 38  1  0  0  0
 37 77  1  0  0  0
 37 78  1  0  0  0
 38 39  1  0  0  0
 39 79  1  0  0  0
 39 80  1  0  0  0
 39 81  1  0  0  0
 40 82  1  0  0  0
M  END
> <i_f3d_flags>
0

> <chiral flag>
1

> <version>
0

> <s_i_glide_gridfile>
base1a_gride_6

> <i_i_glide_lignum>
31

> <i_i_glide_rotatable_bonds>
9

> <r_i_docking_score>
-0.778041749747726

> <r_i_glide_ligand_efficiency>
-0.0194510437436931

> <r_i_glide_ligand_efficiency_sa>
-0.0665216337971463

> <r_i_glide_ligand_efficiency_ln>
-0.165933408474617

> <r_glide_XP_GScore>
-2.95394174974773

> <r_i_glide_gscore>
-2.95394174974773

> <r_i_glide_evdw>
-31.0248394012451

> <r_i_glide_ecoul>
-6.24606895446777

> <r_i_glide_energy>
-37.2709083557129

> <r_i_glide_einternal>
9.90891933441162

> <r_i_glide_emodel>
-41.9913976591964

> <r_glide_XP_HBond>
-1.33

> <i_i_glide_confnum>
1

> <i_i_glide_posenum>
7

> <r_i_glide_eff_state_penalty>
2.1759

> <i_glide_XP_PoseRank>
1

> <s_m_source_file>
glide-dock_pose_2-0016_raw.maegz

> <i_m_source_file_index>
1

> <i_lp_mmshare_version>
42013

> <s_epik_input>
W0NIM11bQ0hdKFtDSDNdKWMxW2NIXVtjSF1bY0hdYyhbY0hdMSlbQ0gyXVtOSF1bQ0gyXVtDQEBIXShbT0hdKVtDQEhdKFtDSDJdMilbTkhdQyg9TyljKFtjSF0zKVtjSF1jKFtDSDJdT1tDSDNdKVtjSF1jM09bQ0gyXVtDSDJdW0NIMl1bQ0gyXU9jKFtjSF00KVtjSF1bY0hdW2NIXWMyNA==

> <s_epik_cmdline>
J2VwaWtfcHl0aG9uJywgJy1waCcsICc3LjAnLCAnLXRuJywgJzgnLCAnLW1hJywgJzIwMCcsICctaW1hZScsICc8aW5maWxlLm1hZT4nLCAnLW9tYWUnLCAnPG91dGZpbGUubWFlPic=

> <r_lp_tautomer_probability>
1

> <r_epik_Ionization_Penalty>
2.04391

> <r_epik_Ionization_Penalty_Charging>
0

> <r_epik_Ionization_Penalty_Neutral>
2.04391

> <r_epik_State_Penalty>
2.17586

> <r_epik_Charging_Adjusted_Penalty>
2.17586

> <i_epik_Tot_Q>
0

> <i_epik_Tot_abs_Q>
0

> <i_f3d_flags>
0

> <s_lp_Force_Field>
OPLS_2005

> <r_lp_Energy>
41.685

> <b_lp_Chiralities_Consistent>
1

> <s_lp_Variant>
BACE_15.smi:1-2

$$$$
BACE_16.smi:1
                    3D
 Structure written by MMmdl.
 85 88  0  0  1  0            999 V2000
   -5.7745    5.6663    2.0750 C   0  0  0  0  0  0
   -4.3253    5.2020    2.2919 C   0  0  0  0  0  0
   -3.4700    6.3008    2.9414 C   0  0  0  0  0  0
   -3.6968    4.6922    1.0007 C   0  0  0  0  0  0
   -3.5456    5.5471   -0.1135 C   0  0  0  0  0  0
   -2.9679    5.0675   -1.3045 C   0  0  0  0  0  0
   -2.5369    3.7304   -1.3906 C   0  0  0  0  0  0
   -2.6806    2.8695   -0.2831 C   0  0  0  0  0  0
   -3.2586    3.3534    0.9094 C   0  0  0  0  0  0
   -2.2157    1.4306   -0.3741 C   0  0  0  0  0  0
   -0.7782    1.3265   -0.0611 N   0  3  0  0  0  0
   -0.2571   -0.0548   -0.0940 C   0  0  0  0  0  0
    1.2626   -0.0884    0.1782 C   0  0  2  0  0  0
    1.9189   -1.4853   -0.0125 C   0  0  2  0  0  0
    3.4592   -1.4634    0.1527 C   0  0  0  0  0  0
    4.0691   -2.8547    0.1280 C   0  0  0  0  0  0
    4.1776   -3.6008    1.3190 C   0  0  0  0  0  0
    4.6919   -4.9105    1.2855 C   0  0  0  0  0  0
    5.0813   -5.4859    0.0608 C   0  0  0  0  0  0
    4.9704   -4.7462   -1.1414 C   0  0  0  0  0  0
    4.4927   -3.4227   -1.0908 C   0  0  0  0  0  0
    5.2953   -5.2489   -2.3792 O   0  0  0  0  0  0
    5.2063   -6.6565   -2.5535 C   0  0  0  0  0  0
    4.9990   -6.9537   -4.0453 C   0  0  0  0  0  0
    3.7671   -6.2586   -4.6559 C   0  0  0  0  0  0
    2.4235   -6.6901   -4.0373 C   0  0  0  0  0  0
    1.3291   -6.1444   -4.7672 O   0  0  0  0  0  0
    1.0314   -4.8018   -4.6522 C   0  0  0  0  0  0
    1.5065   -3.9569   -3.6180 C   0  0  0  0  0  0
    1.1497   -2.5901   -3.5909 C   0  0  0  0  0  0
    0.3306   -2.0649   -4.6110 C   0  0  0  0  0  0
   -0.1695   -2.8904   -5.6352 C   0  0  0  0  0  0
    0.1852   -4.2613   -5.6415 C   0  0  0  0  0  0
   -0.9831   -2.2968   -6.5749 O   0  0  0  0  0  0
   -1.5246   -3.1219   -7.5971 C   0  0  0  0  0  0
   -2.4227   -2.2882   -8.5096 C   0  0  0  0  0  0
   -2.5501   -1.0728   -8.3679 O   0  0  0  0  0  0
   -3.1647   -3.0299   -9.6141 C   0  0  0  0  0  0
    1.6542   -1.6830   -2.5101 C   0  0  0  0  0  0
    2.0910   -0.5648   -2.7805 O   0  0  0  0  0  0
    1.5262   -2.1581   -1.2581 N   0  0  0  0  0  0
    1.4491    0.3065    1.5246 O   0  0  0  0  0  0
    1.7617    0.6411   -0.4606 H   0  0  0  0  0  0
    1.5212   -2.1284    0.7744 H   0  0  0  0  0  0
   -6.3850    4.8640    1.6595 H   0  0  0  0  0  0
   -5.8293    6.5145    1.3921 H   0  0  0  0  0  0
   -6.2316    5.9731    3.0160 H   0  0  0  0  0  0
   -4.3610    4.3682    2.9945 H   0  0  0  0  0  0
   -2.4597    5.9431    3.1426 H   0  0  0  0  0  0
   -3.9002    6.6212    3.8906 H   0  0  0  0  0  0
   -3.3914    7.1805    2.3021 H   0  0  0  0  0  0
   -3.8731    6.5749   -0.0605 H   0  0  0  0  0  0
   -2.8568    5.7262   -2.1534 H   0  0  0  0  0  0
   -2.0956    3.3696   -2.3082 H   0  0  0  0  0  0
   -3.3678    2.6920    1.7567 H   0  0  0  0  0  0
   -2.7901    0.8134    0.3182 H   0  0  0  0  0  0
   -2.4042    1.0482   -1.3783 H   0  0  0  0  0  0
   -0.7916   -0.6719    0.6298 H   0  0  0  0  0  0
   -0.4836   -0.4587   -1.0803 H   0  0  0  0  0  0
    3.9175   -0.8558   -0.6288 H   0  0  0  0  0  0
    3.7331   -0.9894    1.0958 H   0  0  0  0  0  0
    3.8597   -3.1749    2.2595 H   0  0  0  0  0  0
    4.7758   -5.4799    2.1993 H   0  0  0  0  0  0
    5.4641   -6.4954    0.0603 H   0  0  0  0  0  0
    4.4071   -2.8562   -2.0068 H   0  0  0  0  0  0
    6.1239   -7.1279   -2.1996 H   0  0  0  0  0  0
    4.3793   -7.0815   -1.9827 H   0  0  0  0  0  0
    5.8873   -6.6399   -4.5943 H   0  0  0  0  0  0
    4.9195   -8.0316   -4.1910 H   0  0  0  0  0  0
    3.8847   -5.1775   -4.5800 H   0  0  0  0  0  0
    3.7436   -6.4787   -5.7236 H   0  0  0  0  0  0
    2.3376   -7.7747   -4.1044 H   0  0  0  0  0  0
    2.3560   -6.4585   -2.9750 H   0  0  0  0  0  0
    2.1518   -4.3381   -2.8416 H   0  0  0  0  0  0
    0.0632   -1.0177   -4.6032 H   0  0  0  0  0  0
   -0.1726   -4.9254   -6.4139 H   0  0  0  0  0  0
   -0.7230   -3.5617   -8.1918 H   0  0  0  0  0  0
   -2.1146   -3.9288   -7.1607 H   0  0  0  0  0  0
   -2.6821   -3.9833   -9.8294 H   0  0  0  0  0  0
   -3.1777   -2.4352  -10.5278 H   0  0  0  0  0  0
   -4.1939   -3.2223   -9.3111 H   0  0  0  0  0  0
    1.1394   -3.0856   -1.1581 H   0  0  0  0  0  0
    1.0893   -0.3604    2.0900 H   0  0  0  0  0  0
   -0.2647    1.8804   -0.7316 H   0  0  0  0  0  0
   -0.6175    1.7079    0.8604 H   0  0  0  0  0  0
  1  2  1  0  0  0
  1 45  1  0  0  0
  1 46  1  0  0  0
  1 47  1  0  0  0
  2  3  1  0  0  0
  2  4  1  0  0  0
  2 48  1  0  0  0
  3 49  1  0  0  0
  3 50  1  0  0  0
  3 51  1  0  0  0
  4  9  1  0  0  0
  4  5  2  0  0  0
  5  6  1  0  0  0
  5 52  1  0  0  0
  6  7  2  0  0  0
  6 53  1  0  0  0
  7  8  1  0  0  0
  7 54  1  0  0  0
  8  9  2  0  0  0
  8 10  1  0  0  0
  9 55  1  0  0  0
 10 11  1  0  0  0
 10 56  1  0  0  0
 10 57  1  0  0  0
 11 12  1  0  0  0
 11 84  1  0  0  0
 11 85  1  0  0  0
 12 13  1  0  0  0
 12 58  1  0  0  0
 12 59  1  0  0  0
 13 43  1  0  0  0
 13 14  1  0  0  0
 13 42  1  0  0  0
 14 44  1  0  0  0
 14 41  1  0  0  0
 14 15  1  0  0  0
 15 16  1  0  0  0
 15 60  1  0  0  0
 15 61  1  0  0  0
 16 21  1  0  0  0
 16 17  2  0  0  0
 17 18  1  0  0  0
 17 62  1  0  0  0
 18 19  2  0  0  0
 18 63  1  0  0  0
 19 20  1  0  0  0
 19 64  1  0  0  0
 20 21  2  0  0  0
 20 22  1  0  0  0
 21 65  1  0  0  0
 22 23  1  0  0  0
 23 24  1  0  0  0
 23 66  1  0  0  0
 23 67  1  0  0  0
 24 25  1  0  0  0
 24 68  1  0  0  0
 24 69  1  0  0  0
 25 26  1  0  0  0
 25 70  1  0  0  0
 25 71  1  0  0  0
 26 27  1  0  0  0
 26 72  1  0  0  0
 26 73  1  0  0  0
 27 28  1  0  0  0
 28 33  1  0  0  0
 28 29  2  0  0  0
 29 30  1  0  0  0
 29 74  1  0  0  0
 30 31  2  0  0  0
 30 39  1  0  0  0
 31 32  1  0  0  0
 31 75  1  0  0  0
 32 33  2  0  0  0
 32 34  1  0  0  0
 33 76  1  0  0  0
 34 35  1  0  0  0
 35 36  1  0  0  0
 35 77  1  0  0  0
 35 78  1  0  0  0
 36 37  2  0  0  0
 36 38  1  0  0  0
 38 79  1  0  0  0
 38 80  1  0  0  0
 38 81  1  0  0  0
 39 40  2  0  0  0
 39 41  1  0  0  0
 41 82  1  0  0  0
 42 83  1  0  0  0
M  CHG  1  11   1
M  END
> <i_f3d_flags>
0

> <chiral flag>
1

> <version>
0

> <s_i_glide_gridfile>
base1a_gride_6

> <i_i_glide_lignum>
32

> <i_i_glide_rotatable_bonds>
10

> <r_i_docking_score>
-3.55868551279005

> <r_i_glide_ligand_efficiency>
-0.0847306074473822

> <r_i_glide_ligand_efficiency_sa>
-0.294525848757568

> <r_i_glide_ligand_efficiency_ln>
-0.751146829457368

> <r_glide_XP_GScore>
-3.57398551279005

> <r_i_glide_gscore>
-3.57398551279005

> <r_i_glide_evdw>
-27.7396297454834

> <r_i_glide_ecoul>
-12.5020017623901

> <r_i_glide_energy>
-40.2416315078735

> <r_i_glide_einternal>
6.75113773345947

> <r_i_glide_emodel>
-53.0144583853581

> <r_glide_XP_HBond>
-1.05

> <i_i_glide_confnum>
1

> <i_i_glide_posenum>
1

> <r_i_glide_eff_state_penalty>
0.0153

> <i_glide_XP_PoseRank>
1

> <s_m_source_file>
glide-dock_pose_2-0016_raw.maegz

> <i_m_source_file_index>
2

> <i_lp_mmshare_version>
42013

> <s_epik_input>
W0NIM11bQ0hdKFtDSDNdKWMxW2NIXVtjSF1bY0hdYyhbY0hdMSlbQ0gyXVtOSF1bQ0gyXVtDQEBIXShbT0hdKVtDQEhdKFtDSDJdMilbTkhdQyg9TyljKFtjSF1jKFtjSF0zKU9bQ0gyXUMoPU8pW0NIM10pW2NIXWMzT1tDSDJdW0NIMl1bQ0gyXVtDSDJdT2MoW2NIXTQpW2NIXVtjSF1bY0hdYzI0

> <s_epik_cmdline>
J2VwaWtfcHl0aG9uJywgJy1waCcsICc3LjAnLCAnLXRuJywgJzgnLCAnLW1hJywgJzIwMCcsICctaW1hZScsICc8aW5maWxlLm1hZT4nLCAnLW9tYWUnLCAnPG91dGZpbGUubWFlPic=

> <r_lp_tautomer_probability>
1

> <r_epik_Ionization_Penalty>
0.0191203

> <r_epik_Ionization_Penalty_Charging>
0.0191194

> <r_epik_Ionization_Penalty_Neutral>
9.73569e-07

> <r_epik_State_Penalty>
0.0152524

> <r_epik_Charging_Adjusted_Penalty>
0.0343718

> <i_epik_Tot_Q>
1

> <i_epik_Tot_abs_Q>
1

> <i_f3d_flags>
0

> <s_lp_Force_Field>
OPLS_2005

> <r_lp_Energy>
32.7949

> <b_lp_Chiralities_Consistent>
1

> <s_lp_Variant>
BACE_16.smi:1-1

$$$$
BACE_16.smi:1
                    3D
 Structure written by MMmdl.
 84 87  0  0  1  0            999 V2000
   -5.8271    2.9525   -4.2385 C   0  0  0  0  0  0
   -4.9438    3.7696   -3.2831 C   0  0  0  0  0  0
   -4.6983    5.1897   -3.8157 C   0  0  0  0  0  0
   -3.6352    3.0544   -2.9691 C   0  0  0  0  0  0
   -2.7016    2.7765   -3.9906 C   0  0  0  0  0  0
   -1.4962    2.1162   -3.6881 C   0  0  0  0  0  0
   -1.2112    1.7353   -2.3633 C   0  0  0  0  0  0
   -2.1311    2.0190   -1.3275 C   0  0  0  0  0  0
   -3.3425    2.6698   -1.6430 C   0  0  0  0  0  0
   -1.8636    1.6478    0.1267 C   0  0  0  0  0  0
   -0.4582    1.4146    0.4569 N   0  0  0  0  0  0
   -0.0608    0.0080    0.4535 C   0  0  0  0  0  0
    1.4585   -0.1343    0.6881 C   0  0  2  0  0  0
    2.0127   -1.5630    0.4578 C   0  0  2  0  0  0
    3.5626   -1.5894    0.4955 C   0  0  0  0  0  0
    4.1716   -2.9652    0.2699 C   0  0  0  0  0  0
    4.1580   -3.9185    1.3069 C   0  0  0  0  0  0
    4.7029   -5.1977    1.0931 C   0  0  0  0  0  0
    5.2608   -5.5316   -0.1559 C   0  0  0  0  0  0
    5.2800   -4.5837   -1.2094 C   0  0  0  0  0  0
    4.7400   -3.3013   -0.9774 C   0  0  0  0  0  0
    5.8009   -4.8218   -2.4650 O   0  0  0  0  0  0
    6.1164   -6.1555   -2.8618 C   0  0  0  0  0  0
    4.8512   -6.9954   -3.1221 C   0  0  0  0  0  0
    3.9390   -6.3819   -4.1951 C   0  0  0  0  0  0
    2.5816   -7.1048   -4.3054 C   0  0  0  0  0  0
    1.6186   -6.3093   -4.9927 O   0  0  0  0  0  0
    1.0702   -5.2181   -4.3456 C   0  0  0  0  0  0
    1.3160   -4.8875   -2.9903 C   0  0  0  0  0  0
    0.7743   -3.7175   -2.4235 C   0  0  0  0  0  0
   -0.0697   -2.8910   -3.1950 C   0  0  0  0  0  0
   -0.3633   -3.2284   -4.5390 C   0  0  0  0  0  0
    0.2233   -4.3813   -5.0992 C   0  0  0  0  0  0
   -1.1925   -2.4898   -5.3530 O   0  0  0  0  0  0
   -1.9716   -1.4707   -4.7434 C   0  0  0  0  0  0
   -2.9422   -0.8899   -5.7691 C   0  0  0  0  0  0
   -2.7634   -1.0162   -6.9795 O   0  0  0  0  0  0
   -4.1478   -0.1324   -5.2304 C   0  0  0  0  0  0
    1.0983   -3.3748   -1.0031 C   0  0  0  0  0  0
    1.0447   -4.2313   -0.1205 O   0  0  0  0  0  0
    1.5211   -2.1147   -0.8072 N   0  0  0  0  0  0
    1.7068    0.2099    2.0385 O   0  0  0  0  0  0
    1.9891    0.5644    0.0392 H   0  0  0  0  0  0
    1.6416   -2.1910    1.2704 H   0  0  0  0  0  0
   -6.0350    1.9629   -3.8309 H   0  0  0  0  0  0
   -5.3535    2.8217   -5.2115 H   0  0  0  0  0  0
   -6.7847    3.4467   -4.4041 H   0  0  0  0  0  0
   -5.4969    3.8713   -2.3483 H   0  0  0  0  0  0
   -4.1176    5.7788   -3.1053 H   0  0  0  0  0  0
   -5.6401    5.7127   -3.9836 H   0  0  0  0  0  0
   -4.1553    5.1777   -4.7611 H   0  0  0  0  0  0
   -2.9074    3.0636   -5.0112 H   0  0  0  0  0  0
   -0.7880    1.9018   -4.4747 H   0  0  0  0  0  0
   -0.2776    1.2340   -2.1580 H   0  0  0  0  0  0
   -4.0490    2.8836   -0.8542 H   0  0  0  0  0  0
   -2.2263    2.4763    0.7359 H   0  0  0  0  0  0
   -2.4762    0.7877    0.4000 H   0  0  0  0  0  0
   -0.6136   -0.5488    1.2114 H   0  0  0  0  0  0
   -0.3363   -0.4281   -0.5062 H   0  0  0  0  0  0
    3.9603   -0.9022   -0.2528 H   0  0  0  0  0  0
    3.9192   -1.2195    1.4575 H   0  0  0  0  0  0
    3.7240   -3.6731    2.2649 H   0  0  0  0  0  0
    4.6902   -5.9271    1.8893 H   0  0  0  0  0  0
    5.6671   -6.5232   -0.2793 H   0  0  0  0  0  0
    4.7483   -2.5737   -1.7759 H   0  0  0  0  0  0
    6.6917   -6.0895   -3.7855 H   0  0  0  0  0  0
    6.7782   -6.6392   -2.1435 H   0  0  0  0  0  0
    5.1398   -8.0020   -3.4256 H   0  0  0  0  0  0
    4.2903   -7.1118   -2.1952 H   0  0  0  0  0  0
    3.7814   -5.3320   -3.9533 H   0  0  0  0  0  0
    4.4389   -6.3861   -5.1640 H   0  0  0  0  0  0
    2.7170   -8.0297   -4.8663 H   0  0  0  0  0  0
    2.1984   -7.4150   -3.3327 H   0  0  0  0  0  0
    1.9552   -5.4988   -2.3715 H   0  0  0  0  0  0
   -0.4871   -2.0049   -2.7399 H   0  0  0  0  0  0
    0.0178   -4.6299   -6.1302 H   0  0  0  0  0  0
   -2.5386   -1.8752   -3.9039 H   0  0  0  0  0  0
   -1.3259   -0.6745   -4.3727 H   0  0  0  0  0  0
   -3.9858    0.1636   -4.1938 H   0  0  0  0  0  0
   -5.0384   -0.7588   -5.2761 H   0  0  0  0  0  0
   -4.3237    0.7647   -5.8236 H   0  0  0  0  0  0
    1.5494   -1.5013   -1.6088 H   0  0  0  0  0  0
    1.2365   -0.3932    2.5935 H   0  0  0  0  0  0
   -0.2358    1.8343    1.3542 H   0  0  0  0  0  0
  1  2  1  0  0  0
  1 45  1  0  0  0
  1 46  1  0  0  0
  1 47  1  0  0  0
  2  3  1  0  0  0
  2  4  1  0  0  0
  2 48  1  0  0  0
  3 49  1  0  0  0
  3 50  1  0  0  0
  3 51  1  0  0  0
  4  9  1  0  0  0
  4  5  2  0  0  0
  5  6  1  0  0  0
  5 52  1  0  0  0
  6  7  2  0  0  0
  6 53  1  0  0  0
  7  8  1  0  0  0
  7 54  1  0  0  0
  8  9  2  0  0  0
  8 10  1  0  0  0
  9 55  1  0  0  0
 10 11  1  0  0  0
 10 56  1  0  0  0
 10 57  1  0  0  0
 11 12  1  0  0  0
 11 84  1  0  0  0
 12 13  1  0  0  0
 12 58  1  0  0  0
 12 59  1  0  0  0
 13 43  1  0  0  0
 13 14  1  0  0  0
 13 42  1  0  0  0
 14 44  1  0  0  0
 14 41  1  0  0  0
 14 15  1  0  0  0
 15 16  1  0  0  0
 15 60  1  0  0  0
 15 61  1  0  0  0
 16 21  1  0  0  0
 16 17  2  0  0  0
 17 18  1  0  0  0
 17 62  1  0  0  0
 18 19  2  0  0  0
 18 63  1  0  0  0
 19 20  1  0  0  0
 19 64  1  0  0  0
 20 21  2  0  0  0
 20 22  1  0  0  0
 21 65  1  0  0  0
 22 23  1  0  0  0
 23 24  1  0  0  0
 23 66  1  0  0  0
 23 67  1  0  0  0
 24 25  1  0  0  0
 24 68  1  0  0  0
 24 69  1  0  0  0
 25 26  1  0  0  0
 25 70  1  0  0  0
 25 71  1  0  0  0
 26 27  1  0  0  0
 26 72  1  0  0  0
 26 73  1  0  0  0
 27 28  1  0  0  0
 28 33  1  0  0  0
 28 29  2  0  0  0
 29 30  1  0  0  0
 29 74  1  0  0  0
 30 31  2  0  0  0
 30 39  1  0  0  0
 31 32  1  0  0  0
 31 75  1  0  0  0
 32 33  2  0  0  0
 32 34  1  0  0  0
 33 76  1  0  0  0
 34 35  1  0  0  0
 35 36  1  0  0  0
 35 77  1  0  0  0
 35 78  1  0  0  0
 36 37  2  0  0  0
 36 38  1  0  0  0
 38 79  1  0  0  0
 38 80  1  0  0  0
 38 81  1  0  0  0
 39 40  2  0  0  0
 39 41  1  0  0  0
 41 82  1  0  0  0
 42 83  1  0  0  0
M  END
> <i_f3d_flags>
0

> <chiral flag>
1

> <version>
0

> <s_i_glide_gridfile>
base1a_gride_6

> <i_i_glide_lignum>
32

> <i_i_glide_rotatable_bonds>
10

> <r_i_docking_score>
-3.55868551279005

> <r_i_glide_ligand_efficiency>
-0.0847306074473822

> <r_i_glide_ligand_efficiency_sa>
-0.294525848757568

> <r_i_glide_ligand_efficiency_ln>
-0.751146829457368

> <r_glide_XP_GScore>
-3.57398551279005

> <r_i_glide_gscore>
-3.57398551279005

> <r_i_glide_evdw>
-27.7396297454834

> <r_i_glide_ecoul>
-12.5020017623901

> <r_i_glide_energy>
-40.2416315078735

> <r_i_glide_einternal>
6.75113773345947

> <r_i_glide_emodel>
-53.0144583853581

> <r_glide_XP_HBond>
-1.05

> <i_i_glide_confnum>
1

> <i_i_glide_posenum>
1

> <r_i_glide_eff_state_penalty>
0.0153

> <i_glide_XP_PoseRank>
1

> <s_m_source_file>
glide-dock_pose_2-0016_raw.maegz

> <i_m_source_file_index>
2

> <i_lp_mmshare_version>
42013

> <s_epik_input>
W0NIM11bQ0hdKFtDSDNdKWMxW2NIXVtjSF1bY0hdYyhbY0hdMSlbQ0gyXVtOSF1bQ0gyXVtDQEBIXShbT0hdKVtDQEhdKFtDSDJdMilbTkhdQyg9TyljKFtjSF1jKFtjSF0zKU9bQ0gyXUMoPU8pW0NIM10pW2NIXWMzT1tDSDJdW0NIMl1bQ0gyXVtDSDJdT2MoW2NIXTQpW2NIXVtjSF1bY0hdYzI0

> <s_epik_cmdline>
J2VwaWtfcHl0aG9uJywgJy1waCcsICc3LjAnLCAnLXRuJywgJzgnLCAnLW1hJywgJzIwMCcsICctaW1hZScsICc8aW5maWxlLm1hZT4nLCAnLW9tYWUnLCAnPG91dGZpbGUubWFlPic=

> <r_lp_tautomer_probability>
1

> <r_epik_Ionization_Penalty>
2.04391

> <r_epik_Ionization_Penalty_Charging>
0

> <r_epik_Ionization_Penalty_Neutral>
2.04391

> <r_epik_State_Penalty>
2.17586

> <r_epik_Charging_Adjusted_Penalty>
2.17586

> <i_epik_Tot_Q>
0

> <i_epik_Tot_abs_Q>
0

> <i_f3d_flags>
0

> <s_lp_Force_Field>
OPLS_2005

> <r_lp_Energy>
39.2848

> <b_lp_Chiralities_Consistent>
1

> <s_lp_Variant>
BACE_16.smi:1-2

$$$$
