BACE_10.smi:1
                    3D
 Structure written by MMmdl.
 86 88  0  0  1  0            999 V2000
   -0.2187    4.6100   -3.1909 C   0  0  0  0  0  0
   -0.5910    3.9273   -1.8610 C   0  0  2  0  0  0
   -0.4846    4.9052   -0.6645 C   0  0  0  0  0  0
   -1.3834    6.1487   -0.7713 C   0  0  0  0  0  0
   -2.7352    5.7366   -0.9091 O   0  0  0  0  0  0
   -3.5472    6.0133    0.2198 C   0  0  0  0  0  0
   -4.9146    5.3453    0.0147 C   0  0  0  0  0  0
   -4.8813    3.8200    0.2097 C   0  0  0  0  0  0
   -4.9024    3.4149    1.6927 C   0  0  0  0  0  0
   -4.8196    1.9719    1.8740 N   0  0  0  0  0  0
   -3.5977    1.3819    2.2294 C   0  0  0  0  0  0
   -3.6275    0.1549    2.9233 C   0  0  0  0  0  0
   -2.4308   -0.4685    3.3358 C   0  0  0  0  0  0
   -1.1929    0.1277    3.0236 C   0  0  0  0  0  0
   -1.1458    1.3355    2.2974 C   0  0  0  0  0  0
   -2.3494    1.9685    1.9192 C   0  0  0  0  0  0
    0.1806    1.9598    1.9833 C   0  0  0  0  0  0
    0.9496    2.2492    2.8968 O   0  0  0  0  0  0
    0.5097    2.1742    0.6955 N   0  0  0  0  0  0
   -0.1594    1.7098   -0.5266 C   0  0  1  0  0  0
    0.2578    2.6434   -1.6906 C   0  0  0  0  0  0
    0.1868    0.2224   -0.8404 C   0  0  1  0  0  0
    1.6124   -0.2221   -0.4571 C   0  0  0  0  0  0
    1.9004   -1.5860   -0.9496 N   0  3  0  0  0  0
    3.2308   -2.1176   -0.5836 C   0  0  0  0  0  0
    3.3908   -2.2615    0.9197 C   0  0  0  0  0  0
    4.2372   -1.3866    1.6322 C   0  0  0  0  0  0
    4.3581   -1.5048    3.0295 C   0  0  0  0  0  0
    3.6322   -2.4945    3.7192 C   0  0  0  0  0  0
    2.7821   -3.3749    3.0159 C   0  0  0  0  0  0
    2.6699   -3.2557    1.6132 C   0  0  0  0  0  0
    1.9839   -4.4296    3.7713 C   0  0  0  0  0  0
    2.3524   -5.8538    3.3270 C   0  0  0  0  0  0
    0.4734   -4.1722    3.6612 C   0  0  0  0  0  0
   -0.7553   -0.6190   -0.2045 O   0  0  0  0  0  0
   -2.4574   -1.7910    4.0800 C   0  0  0  0  0  0
   -3.6656   -1.9955    4.7944 O   0  0  0  0  0  0
   -3.6913   -3.2415    5.4685 C   0  0  0  0  0  0
   -1.6322    3.6132   -1.9450 H   0  0  0  0  0  0
   -1.2414    1.7972   -0.4402 H   0  0  0  0  0  0
    0.0422    0.0406   -1.9057 H   0  0  0  0  0  0
    0.7911    5.0199   -3.1564 H   0  0  0  0  0  0
   -0.9029    5.4217   -3.4362 H   0  0  0  0  0  0
   -0.2623    3.9072   -4.0232 H   0  0  0  0  0  0
   -0.7625    4.3947    0.2555 H   0  0  0  0  0  0
    0.5522    5.2189   -0.5382 H   0  0  0  0  0  0
   -1.2385    6.7926    0.0984 H   0  0  0  0  0  0
   -1.1095    6.7540   -1.6346 H   0  0  0  0  0  0
   -3.0762    5.6569    1.1369 H   0  0  0  0  0  0
   -3.6681    7.0934    0.3123 H   0  0  0  0  0  0
   -5.6438    5.7805    0.6991 H   0  0  0  0  0  0
   -5.2718    5.5774   -0.9892 H   0  0  0  0  0  0
   -5.7518    3.3828   -0.2808 H   0  0  0  0  0  0
   -4.0091    3.4007   -0.2936 H   0  0  0  0  0  0
   -4.1106    3.9163    2.2492 H   0  0  0  0  0  0
   -5.8369    3.7500    2.1433 H   0  0  0  0  0  0
   -5.6615    1.5055    2.1808 H   0  0  0  0  0  0
   -4.5790   -0.3028    3.1524 H   0  0  0  0  0  0
   -0.2750   -0.3546    3.3293 H   0  0  0  0  0  0
   -2.3029    2.9050    1.3832 H   0  0  0  0  0  0
    1.3920    2.6416    0.5456 H   0  0  0  0  0  0
    0.1709    2.0899   -2.6257 H   0  0  0  0  0  0
    1.3160    2.8982   -1.6122 H   0  0  0  0  0  0
    2.3448    0.4641   -0.8840 H   0  0  0  0  0  0
    1.7344   -0.1923    0.6257 H   0  0  0  0  0  0
    1.1972   -2.2074   -0.5753 H   0  0  0  0  0  0
    3.3582   -3.0955   -1.0490 H   0  0  0  0  0  0
    4.0087   -1.4703   -0.9910 H   0  0  0  0  0  0
    4.7910   -0.6180    1.1129 H   0  0  0  0  0  0
    5.0043   -0.8318    3.5743 H   0  0  0  0  0  0
    3.7287   -2.5703    4.7925 H   0  0  0  0  0  0
    2.0161   -3.9196    1.0666 H   0  0  0  0  0  0
    2.2452   -4.3482    4.8273 H   0  0  0  0  0  0
    3.4191   -6.0397    3.4556 H   0  0  0  0  0  0
    2.1074   -6.0271    2.2789 H   0  0  0  0  0  0
    1.8165   -6.5979    3.9172 H   0  0  0  0  0  0
    0.2253   -3.1755    4.0251 H   0  0  0  0  0  0
   -0.0930   -4.8900    4.2549 H   0  0  0  0  0  0
    0.1246   -4.2465    2.6309 H   0  0  0  0  0  0
   -1.6248   -0.3417   -0.4526 H   0  0  0  0  0  0
   -2.3107   -2.5935    3.3557 H   0  0  0  0  0  0
   -1.6187   -1.8203    4.7772 H   0  0  0  0  0  0
   -4.6317   -3.3466    6.0095 H   0  0  0  0  0  0
   -2.8773   -3.3169    6.1908 H   0  0  0  0  0  0
   -3.6127   -4.0712    4.7650 H   0  0  0  0  0  0
    1.8214   -1.5830   -1.9563 H   0  0  0  0  0  0
  1  2  1  0  0  0
  1 42  1  0  0  0
  1 43  1  0  0  0
  1 44  1  0  0  0
  2 39  1  0  0  0
  2 21  1  0  0  0
  2  3  1  0  0  0
  3  4  1  0  0  0
  3 45  1  0  0  0
  3 46  1  0  0  0
  4  5  1  0  0  0
  4 47  1  0  0  0
  4 48  1  0  0  0
  5  6  1  0  0  0
  6  7  1  0  0  0
  6 49  1  0  0  0
  6 50  1  0  0  0
  7  8  1  0  0  0
  7 51  1  0  0  0
  7 52  1  0  0  0
  8  9  1  0  0  0
  8 53  1  0  0  0
  8 54  1  0  0  0
  9 10  1  0  0  0
  9 55  1  0  0  0
  9 56  1  0  0  0
 10 11  1  0  0  0
 10 57  1  0  0  0
 11 16  1  0  0  0
 11 12  2  0  0  0
 12 13  1  0  0  0
 12 58  1  0  0  0
 13 14  2  0  0  0
 13 36  1  0  0  0
 14 15  1  0  0  0
 14 59  1  0  0  0
 15 16  2  0  0  0
 15 17  1  0  0  0
 16 60  1  0  0  0
 17 18  2  0  0  0
 17 19  1  0  0  0
 19 20  1  0  0  0
 19 61  1  0  0  0
 20 40  1  0  0  0
 20 21  1  0  0  0
 20 22  1  0  0  0
 21 62  1  0  0  0
 21 63  1  0  0  0
 22 41  1  0  0  0
 22 23  1  0  0  0
 22 35  1  0  0  0
 23 24  1  0  0  0
 23 64  1  0  0  0
 23 65  1  0  0  0
 24 25  1  0  0  0
 24 66  1  0  0  0
 24 86  1  0  0  0
 25 26  1  0  0  0
 25 67  1  0  0  0
 25 68  1  0  0  0
 26 31  1  0  0  0
 26 27  2  0  0  0
 27 28  1  0  0  0
 27 69  1  0  0  0
 28 29  2  0  0  0
 28 70  1  0  0  0
 29 30  1  0  0  0
 29 71  1  0  0  0
 30 31  2  0  0  0
 30 32  1  0  0  0
 31 72  1  0  0  0
 32 33  1  0  0  0
 32 34  1  0  0  0
 32 73  1  0  0  0
 33 74  1  0  0  0
 33 75  1  0  0  0
 33 76  1  0  0  0
 34 77  1  0  0  0
 34 78  1  0  0  0
 34 79  1  0  0  0
 35 80  1  0  0  0
 36 37  1  0  0  0
 36 81  1  0  0  0
 36 82  1  0  0  0
 37 38  1  0  0  0
 38 83  1  0  0  0
 38 84  1  0  0  0
 38 85  1  0  0  0
M  CHG  1  24   1
M  END
> <i_f3d_flags>
0

> <chiral flag>
1

> <version>
0

> <s_i_glide_gridfile>
base1a_gride_6

> <i_i_glide_lignum>
21

> <i_i_glide_rotatable_bonds>
9

> <r_i_docking_score>
-3.21681683382263

> <r_i_glide_ligand_efficiency>
-0.0846530745742797

> <r_i_glide_ligand_efficiency_sa>
-0.28460155448356

> <r_i_glide_ligand_efficiency_ln>
-0.693640338536033

> <r_glide_XP_GScore>
-5.47631683382263

> <r_i_glide_gscore>
-5.47631683382263

> <r_i_glide_evdw>
-27.3439750671387

> <r_i_glide_ecoul>
-12.6454410552979

> <r_i_glide_energy>
-39.9894161224365

> <r_i_glide_einternal>
8.81545371606167

> <r_i_glide_emodel>
-47.4158744812012

> <r_glide_XP_HBond>
-3.02337086169512

> <i_i_glide_confnum>
1

> <i_i_glide_posenum>
2

> <r_i_glide_eff_state_penalty>
2.2595

> <i_glide_XP_PoseRank>
1

> <s_m_source_file>
glide-dock_pose_2-0011_raw.maegz

> <i_m_source_file_index>
1

> <i_lp_mmshare_version>
42013

> <s_epik_input>
W05IXTFbQ0gyXVtDSDJdW0NIMl1bQ0gyXU9bQ0gyXVtDSDJdW0NAQEhdKFtDSDNdKVtDSDJdW0NASF0oW05IXUMoPU8pYyhbY0hdMilbY0hdYyhbY0hdYzEyKVtDSDJdT1tDSDNdKVtDQEhdKFtPSF0pW0NIMl1bTkhdW0NIMl1jM1tjSF1bY0hdW2NIXWMoW2NIXTMpW0NIXShbQ0gzXSlbQ0gzXQ==

> <s_epik_cmdline>
J2VwaWtfcHl0aG9uJywgJy1waCcsICc3LjAnLCAnLXRuJywgJzgnLCAnLW1hJywgJzIwMCcsICctaW1hZScsICc8aW5maWxlLm1hZT4nLCAnLW9tYWUnLCAnPG91dGZpbGUubWFlPic=

> <r_epik_Ionization_Penalty>
0.0171353

> <r_epik_Ionization_Penalty_Charging>
0.0167304

> <r_epik_Ionization_Penalty_Neutral>
0.000404869

> <r_epik_State_Penalty>
0.0132218

> <r_epik_Charging_Adjusted_Penalty>
0.0299522

> <i_epik_Tot_Q>
1

> <i_epik_Tot_abs_Q>
1

> <i_f3d_flags>
0

> <s_lp_Force_Field>
OPLS_2005

> <r_lp_Energy>
35.5902

> <b_lp_Chiralities_Consistent>
1

> <s_lp_Variant>
BACE_10.smi:1-1

$$$$
BACE_10.smi:1
                    3D
 Structure written by MMmdl.
 85 87  0  0  1  0            999 V2000
   -4.3340    2.7260    0.5356 C   0  0  0  0  0  0
   -2.8618    2.9071    0.1196 C   0  0  2  0  0  0
   -2.7232    4.0079   -0.9599 C   0  0  0  0  0  0
   -3.1689    5.4116   -0.5241 C   0  0  0  0  0  0
   -2.4615    5.7824    0.6472 O   0  0  0  0  0  0
   -2.5082    7.1730    0.9111 C   0  0  0  0  0  0
   -1.8863    7.4725    2.2830 C   0  0  0  0  0  0
   -0.4532    6.9360    2.4484 C   0  0  0  0  0  0
   -0.4095    5.5329    3.0780 C   0  0  0  0  0  0
    0.9503    5.0254    3.1934 N   0  0  0  0  0  0
    1.5888    4.3324    2.1535 C   0  0  0  0  0  0
    2.9235    3.9269    2.3582 C   0  0  0  0  0  0
    3.6292    3.2256    1.3599 C   0  0  0  0  0  0
    2.9810    2.9022    0.1499 C   0  0  0  0  0  0
    1.6402    3.2825   -0.0634 C   0  0  0  0  0  0
    0.9563    4.0202    0.9274 C   0  0  0  0  0  0
    0.9734    2.9395   -1.3623 C   0  0  0  0  0  0
    1.4325    3.3766   -2.4151 O   0  0  0  0  0  0
   -0.1035    2.1292   -1.3488 N   0  0  0  0  0  0
   -0.7228    1.4088   -0.2304 C   0  0  1  0  0  0
   -2.2674    1.5447   -0.3234 C   0  0  0  0  0  0
   -0.2680   -0.0779   -0.2316 C   0  0  1  0  0  0
    1.2618   -0.2813   -0.2095 C   0  0  0  0  0  0
    1.6179   -1.6727   -0.4795 N   0  0  0  0  0  0
    3.0561   -1.9295   -0.4608 C   0  0  0  0  0  0
    3.6448   -1.9092    0.9385 C   0  0  0  0  0  0
    4.6767   -1.0039    1.2590 C   0  0  0  0  0  0
    5.2234   -0.9891    2.5562 C   0  0  0  0  0  0
    4.7401   -1.8757    3.5368 C   0  0  0  0  0  0
    3.7059   -2.7858    3.2267 C   0  0  0  0  0  0
    3.1640   -2.7979    1.9234 C   0  0  0  0  0  0
    3.1760   -3.7491    4.2813 C   0  0  0  0  0  0
    2.5557   -3.0024    5.4726 C   0  0  0  0  0  0
    4.2571   -4.7424    4.7348 C   0  0  0  0  0  0
   -0.7542   -0.6911    0.9477 O   0  0  0  0  0  0
    5.0681    2.8126    1.6164 C   0  0  0  0  0  0
    5.7491    2.4150    0.4363 O   0  0  0  0  0  0
    7.1037    2.0748    0.6744 C   0  0  0  0  0  0
   -2.3195    3.2237    1.0110 H   0  0  0  0  0  0
   -0.4138    1.8324    0.7234 H   0  0  0  0  0  0
   -0.6945   -0.5837   -1.0993 H   0  0  0  0  0  0
   -4.9536    2.4396   -0.3147 H   0  0  0  0  0  0
   -4.7490    3.6392    0.9609 H   0  0  0  0  0  0
   -4.4383    1.9532    1.2977 H   0  0  0  0  0  0
   -1.6865    4.1007   -1.2698 H   0  0  0  0  0  0
   -3.2762    3.7168   -1.8536 H   0  0  0  0  0  0
   -2.9540    6.1108   -1.3341 H   0  0  0  0  0  0
   -4.2429    5.4572   -0.3434 H   0  0  0  0  0  0
   -1.9683    7.7099    0.1297 H   0  0  0  0  0  0
   -3.5408    7.5253    0.8942 H   0  0  0  0  0  0
   -1.8734    8.5549    2.4143 H   0  0  0  0  0  0
   -2.5255    7.0853    3.0772 H   0  0  0  0  0  0
    0.0627    6.9454    1.4872 H   0  0  0  0  0  0
    0.1032    7.6161    3.0943 H   0  0  0  0  0  0
   -0.8251    5.5816    4.0847 H   0  0  0  0  0  0
   -1.0404    4.8286    2.5377 H   0  0  0  0  0  0
    1.4578    5.2093    4.0469 H   0  0  0  0  0  0
    3.4171    4.1608    3.2907 H   0  0  0  0  0  0
    3.5054    2.3512   -0.6176 H   0  0  0  0  0  0
   -0.0589    4.3290    0.7305 H   0  0  0  0  0  0
   -0.5189    1.9448   -2.2504 H   0  0  0  0  0  0
   -2.7082    0.7820    0.3178 H   0  0  0  0  0  0
   -2.6099    1.2940   -1.3283 H   0  0  0  0  0  0
    1.7331    0.3348   -0.9732 H   0  0  0  0  0  0
    1.6709    0.0487    0.7466 H   0  0  0  0  0  0
    1.2251   -1.9679   -1.3675 H   0  0  0  0  0  0
    3.2501   -2.9176   -0.8787 H   0  0  0  0  0  0
    3.5788   -1.2194   -1.1032 H   0  0  0  0  0  0
    5.0510   -0.3183    0.5129 H   0  0  0  0  0  0
    6.0146   -0.2971    2.8020 H   0  0  0  0  0  0
    5.1678   -1.8537    4.5283 H   0  0  0  0  0  0
    2.3726   -3.4896    1.6734 H   0  0  0  0  0  0
    2.3778   -4.3341    3.8225 H   0  0  0  0  0  0
    1.7546   -2.3398    5.1441 H   0  0  0  0  0  0
    3.2941   -2.3970    5.9986 H   0  0  0  0  0  0
    2.1294   -3.7009    6.1931 H   0  0  0  0  0  0
    4.6524   -5.3044    3.8880 H   0  0  0  0  0  0
    3.8525   -5.4625    5.4465 H   0  0  0  0  0  0
    5.0927   -4.2356    5.2180 H   0  0  0  0  0  0
   -0.4423   -1.5831    0.9672 H   0  0  0  0  0  0
    5.5927    3.6523    2.0751 H   0  0  0  0  0  0
    5.0684    1.9959    2.3391 H   0  0  0  0  0  0
    7.5717    1.7646   -0.2596 H   0  0  0  0  0  0
    7.1875    1.2495    1.3820 H   0  0  0  0  0  0
    7.6618    2.9272    1.0640 H   0  0  0  0  0  0
  1  2  1  0  0  0
  1 42  1  0  0  0
  1 43  1  0  0  0
  1 44  1  0  0  0
  2 39  1  0  0  0
  2 21  1  0  0  0
  2  3  1  0  0  0
  3  4  1  0  0  0
  3 45  1  0  0  0
  3 46  1  0  0  0
  4  5  1  0  0  0
  4 47  1  0  0  0
  4 48  1  0  0  0
  5  6  1  0  0  0
  6  7  1  0  0  0
  6 49  1  0  0  0
  6 50  1  0  0  0
  7  8  1  0  0  0
  7 51  1  0  0  0
  7 52  1  0  0  0
  8  9  1  0  0  0
  8 53  1  0  0  0
  8 54  1  0  0  0
  9 10  1  0  0  0
  9 55  1  0  0  0
  9 56  1  0  0  0
 10 11  1  0  0  0
 10 57  1  0  0  0
 11 16  1  0  0  0
 11 12  2  0  0  0
 12 13  1  0  0  0
 12 58  1  0  0  0
 13 14  2  0  0  0
 13 36  1  0  0  0
 14 15  1  0  0  0
 14 59  1  0  0  0
 15 16  2  0  0  0
 15 17  1  0  0  0
 16 60  1  0  0  0
 17 18  2  0  0  0
 17 19  1  0  0  0
 19 20  1  0  0  0
 19 61  1  0  0  0
 20 40  1  0  0  0
 20 21  1  0  0  0
 20 22  1  0  0  0
 21 62  1  0  0  0
 21 63  1  0  0  0
 22 41  1  0  0  0
 22 23  1  0  0  0
 22 35  1  0  0  0
 23 24  1  0  0  0
 23 64  1  0  0  0
 23 65  1  0  0  0
 24 25  1  0  0  0
 24 66  1  0  0  0
 25 26  1  0  0  0
 25 67  1  0  0  0
 25 68  1  0  0  0
 26 31  1  0  0  0
 26 27  2  0  0  0
 27 28  1  0  0  0
 27 69  1  0  0  0
 28 29  2  0  0  0
 28 70  1  0  0  0
 29 30  1  0  0  0
 29 71  1  0  0  0
 30 31  2  0  0  0
 30 32  1  0  0  0
 31 72  1  0  0  0
 32 33  1  0  0  0
 32 34  1  0  0  0
 32 73  1  0  0  0
 33 74  1  0  0  0
 33 75  1  0  0  0
 33 76  1  0  0  0
 34 77  1  0  0  0
 34 78  1  0  0  0
 34 79  1  0  0  0
 35 80  1  0  0  0
 36 37  1  0  0  0
 36 81  1  0  0  0
 36 82  1  0  0  0
 37 38  1  0  0  0
 38 83  1  0  0  0
 38 84  1  0  0  0
 38 85  1  0  0  0
M  END
> <i_f3d_flags>
0

> <chiral flag>
1

> <version>
0

> <s_i_glide_gridfile>
base1a_gride_6

> <i_i_glide_lignum>
21

> <i_i_glide_rotatable_bonds>
9

> <r_i_docking_score>
-3.21681683382263

> <r_i_glide_ligand_efficiency>
-0.0846530745742797

> <r_i_glide_ligand_efficiency_sa>
-0.28460155448356

> <r_i_glide_ligand_efficiency_ln>
-0.693640338536033

> <r_glide_XP_GScore>
-5.47631683382263

> <r_i_glide_gscore>
-5.47631683382263

> <r_i_glide_evdw>
-27.3439750671387

> <r_i_glide_ecoul>
-12.6454410552979

> <r_i_glide_energy>
-39.9894161224365

> <r_i_glide_einternal>
8.81545371606167

> <r_i_glide_emodel>
-47.4158744812012

> <r_glide_XP_HBond>
-3.02337086169512

> <i_i_glide_confnum>
1

> <i_i_glide_posenum>
2

> <r_i_glide_eff_state_penalty>
2.2595

> <i_glide_XP_PoseRank>
1

> <s_m_source_file>
glide-dock_pose_2-0011_raw.maegz

> <i_m_source_file_index>
1

> <i_lp_mmshare_version>
42013

> <s_epik_input>
W05IXTFbQ0gyXVtDSDJdW0NIMl1bQ0gyXU9bQ0gyXVtDSDJdW0NAQEhdKFtDSDNdKVtDSDJdW0NASF0oW05IXUMoPU8pYyhbY0hdMilbY0hdYyhbY0hdYzEyKVtDSDJdT1tDSDNdKVtDQEhdKFtPSF0pW0NIMl1bTkhdW0NIMl1jM1tjSF1bY0hdW2NIXWMoW2NIXTMpW0NIXShbQ0gzXSlbQ0gzXQ==

> <s_epik_cmdline>
J2VwaWtfcHl0aG9uJywgJy1waCcsICc3LjAnLCAnLXRuJywgJzgnLCAnLW1hJywgJzIwMCcsICctaW1hZScsICc8aW5maWxlLm1hZT4nLCAnLW9tYWUnLCAnPG91dGZpbGUubWFlPic=

> <r_epik_Ionization_Penalty>
2.12225

> <r_epik_Ionization_Penalty_Charging>
0

> <r_epik_Ionization_Penalty_Neutral>
2.12225

> <r_epik_State_Penalty>
2.2595

> <r_epik_Charging_Adjusted_Penalty>
2.2595

> <i_epik_Tot_Q>
0

> <i_epik_Tot_abs_Q>
0

> <i_f3d_flags>
0

> <s_lp_Force_Field>
OPLS_2005

> <r_lp_Energy>
40.6464

> <b_lp_Chiralities_Consistent>
1

> <s_lp_Variant>
BACE_10.smi:1-2

$$$$
BACE_11.smi:1
                    3D
 Structure written by MMmdl.
 81 83  0  0  1  0            999 V2000
   -1.5974   -0.6773    3.8834 C   0  0  0  0  0  0
   -2.6012    0.0369    2.9582 C   0  0  1  0  0  0
   -1.9930    0.6272    1.6672 C   0  0  0  0  0  0
   -0.8932    1.1766    1.7173 O   0  0  0  0  0  0
   -2.7226    0.5676    0.5372 N   0  0  0  0  0  0
   -2.4638    1.2536   -0.7341 C   0  0  1  0  0  0
   -2.7986    2.7628   -0.6129 C   0  0  0  0  0  0
   -4.2469    3.0185   -0.2186 C   0  0  0  0  0  0
   -5.2155    3.2805   -1.2084 C   0  0  0  0  0  0
   -6.5611    3.4749   -0.8432 C   0  0  0  0  0  0
   -6.9499    3.3876    0.5078 C   0  0  0  0  0  0
   -5.9875    3.1127    1.5105 C   0  0  0  0  0  0
   -4.6388    2.9629    1.1354 C   0  0  0  0  0  0
   -6.2749    2.9619    2.8487 O   0  0  0  0  0  0
   -7.6337    2.9569    3.2554 C   0  0  0  0  0  0
   -7.7284    2.4928    4.7175 C   0  0  0  0  0  0
   -7.5738    0.9688    4.9148 C   0  0  0  0  0  0
   -6.2496    0.5099    5.5652 C   0  0  0  0  0  0
   -4.9952    0.5060    4.6620 C   0  0  0  0  0  0
   -4.9598   -0.5936    3.5781 C   0  0  0  0  0  0
   -5.9506   -1.3117    3.4316 O   0  0  0  0  0  0
   -3.8430   -0.7630    2.8196 N   0  0  0  0  0  0
   -3.8013   -1.9015    1.8885 C   0  0  0  0  0  0
   -1.0568    0.9759   -1.3338 C   0  0  1  0  0  0
   -0.6642   -0.5168   -1.3657 C   0  0  0  0  0  0
    0.7389   -0.6915   -1.7912 N   0  3  0  0  0  0
    1.1840   -2.0971   -1.8287 C   0  0  0  0  0  0
    2.6198   -2.1886   -2.3040 C   0  0  0  0  0  0
    2.9019   -2.3781   -3.6726 C   0  0  0  0  0  0
    4.2363   -2.4650   -4.1117 C   0  0  0  0  0  0
    5.2919   -2.3608   -3.1860 C   0  0  0  0  0  0
    5.0205   -2.1661   -1.8136 C   0  0  0  0  0  0
    3.6798   -2.0816   -1.3792 C   0  0  0  0  0  0
    6.1573   -2.0524   -0.8053 C   0  0  0  0  0  0
    7.0682   -0.8510   -1.1049 C   0  0  0  0  0  0
    6.9585   -3.3599   -0.7092 C   0  0  0  0  0  0
   -1.0495    1.4324   -2.6736 O   0  0  0  0  0  0
   -2.8404    0.9606    3.4805 H   0  0  0  0  0  0
   -3.1883    0.8201   -1.4256 H   0  0  0  0  0  0
   -0.3030    1.5396   -0.7828 H   0  0  0  0  0  0
   -0.7134   -0.0664    4.0688 H   0  0  0  0  0  0
   -1.2623   -1.6206    3.4519 H   0  0  0  0  0  0
   -2.0438   -0.8990    4.8532 H   0  0  0  0  0  0
   -3.6098    0.0883    0.5998 H   0  0  0  0  0  0
   -2.1427    3.2397    0.1166 H   0  0  0  0  0  0
   -2.6069    3.2702   -1.5590 H   0  0  0  0  0  0
   -4.9321    3.3286   -2.2496 H   0  0  0  0  0  0
   -7.3008    3.6788   -1.6033 H   0  0  0  0  0  0
   -7.9920    3.5303    0.7495 H   0  0  0  0  0  0
   -3.9030    2.7662    1.9005 H   0  0  0  0  0  0
   -8.0315    3.9687    3.1639 H   0  0  0  0  0  0
   -8.2409    2.3034    2.6273 H   0  0  0  0  0  0
   -7.0250    3.0460    5.3408 H   0  0  0  0  0  0
   -8.7183    2.7728    5.0795 H   0  0  0  0  0  0
   -8.3740    0.6504    5.5838 H   0  0  0  0  0  0
   -7.7659    0.4369    3.9837 H   0  0  0  0  0  0
   -6.0535    1.1313    6.4396 H   0  0  0  0  0  0
   -6.3906   -0.4959    5.9636 H   0  0  0  0  0  0
   -4.8707    1.4844    4.2037 H   0  0  0  0  0  0
   -4.1302    0.3582    5.3089 H   0  0  0  0  0  0
   -4.4777   -1.7345    1.0490 H   0  0  0  0  0  0
   -4.0955   -2.8282    2.3841 H   0  0  0  0  0  0
   -2.8026   -2.0710    1.4856 H   0  0  0  0  0  0
   -0.7601   -0.9647   -0.3769 H   0  0  0  0  0  0
   -1.3271   -1.0733   -2.0301 H   0  0  0  0  0  0
    1.0970   -2.5396   -0.8353 H   0  0  0  0  0  0
    0.5391   -2.6716   -2.4953 H   0  0  0  0  0  0
    2.0975   -2.4592   -4.3892 H   0  0  0  0  0  0
    4.4517   -2.6125   -5.1599 H   0  0  0  0  0  0
    6.3115   -2.4319   -3.5353 H   0  0  0  0  0  0
    3.4609   -1.9348   -0.3314 H   0  0  0  0  0  0
    5.7128   -1.8774    0.1755 H   0  0  0  0  0  0
    6.4988    0.0789   -1.1202 H   0  0  0  0  0  0
    7.5667   -0.9523   -2.0694 H   0  0  0  0  0  0
    7.8429   -0.7488   -0.3445 H   0  0  0  0  0  0
    6.3117   -4.1969   -0.4445 H   0  0  0  0  0  0
    7.7328   -3.2891    0.0550 H   0  0  0  0  0  0
    7.4484   -3.6022   -1.6526 H   0  0  0  0  0  0
   -1.7498    1.0057   -3.1442 H   0  0  0  0  0  0
    0.8447   -0.2947   -2.7143 H   0  0  0  0  0  0
    1.3348   -0.1830   -1.1536 H   0  0  0  0  0  0
  1  2  1  0  0  0
  1 41  1  0  0  0
  1 42  1  0  0  0
  1 43  1  0  0  0
  2 38  1  0  0  0
  2 22  1  0  0  0
  2  3  1  0  0  0
  3  4  2  0  0  0
  3  5  1  0  0  0
  5  6  1  0  0  0
  5 44  1  0  0  0
  6 39  1  0  0  0
  6  7  1  0  0  0
  6 24  1  0  0  0
  7  8  1  0  0  0
  7 45  1  0  0  0
  7 46  1  0  0  0
  8 13  1  0  0  0
  8  9  2  0  0  0
  9 10  1  0  0  0
  9 47  1  0  0  0
 10 11  2  0  0  0
 10 48  1  0  0  0
 11 12  1  0  0  0
 11 49  1  0  0  0
 12 13  2  0  0  0
 12 14  1  0  0  0
 13 50  1  0  0  0
 14 15  1  0  0  0
 15 16  1  0  0  0
 15 51  1  0  0  0
 15 52  1  0  0  0
 16 17  1  0  0  0
 16 53  1  0  0  0
 16 54  1  0  0  0
 17 18  1  0  0  0
 17 55  1  0  0  0
 17 56  1  0  0  0
 18 19  1  0  0  0
 18 57  1  0  0  0
 18 58  1  0  0  0
 19 20  1  0  0  0
 19 59  1  0  0  0
 19 60  1  0  0  0
 20 21  2  0  0  0
 20 22  1  0  0  0
 22 23  1  0  0  0
 23 61  1  0  0  0
 23 62  1  0  0  0
 23 63  1  0  0  0
 24 40  1  0  0  0
 24 25  1  0  0  0
 24 37  1  0  0  0
 25 26  1  0  0  0
 25 64  1  0  0  0
 25 65  1  0  0  0
 26 27  1  0  0  0
 26 80  1  0  0  0
 26 81  1  0  0  0
 27 28  1  0  0  0
 27 66  1  0  0  0
 27 67  1  0  0  0
 28 33  1  0  0  0
 28 29  2  0  0  0
 29 30  1  0  0  0
 29 68  1  0  0  0
 30 31  2  0  0  0
 30 69  1  0  0  0
 31 32  1  0  0  0
 31 70  1  0  0  0
 32 33  2  0  0  0
 32 34  1  0  0  0
 33 71  1  0  0  0
 34 35  1  0  0  0
 34 36  1  0  0  0
 34 72  1  0  0  0
 35 73  1  0  0  0
 35 74  1  0  0  0
 35 75  1  0  0  0
 36 76  1  0  0  0
 36 77  1  0  0  0
 36 78  1  0  0  0
 37 79  1  0  0  0
M  CHG  1  26   1
M  END
> <i_f3d_flags>
0

> <chiral flag>
1

> <version>
0

> <s_i_glide_gridfile>
base1a_gride_6

> <i_i_glide_lignum>
22

> <i_i_glide_rotatable_bonds>
7

> <r_i_docking_score>
-1.87671230987047

> <r_i_glide_ligand_efficiency>
-0.0507219543208236

> <r_i_glide_ligand_efficiency_sa>
-0.169016804342601

> <r_i_glide_ligand_efficiency_ln>
-0.407014903632113

> <r_glide_XP_GScore>
-1.89361230987047

> <r_i_glide_gscore>
-1.89361230987047

> <r_i_glide_evdw>
-33.1552886962891

> <r_i_glide_ecoul>
-7.14416551589966

> <r_i_glide_energy>
-40.2994542121887

> <r_i_glide_einternal>
3.01507019996643

> <r_i_glide_emodel>
-47.2991005726093

> <r_glide_XP_HBond>
-0.7

> <i_i_glide_confnum>
1

> <i_i_glide_posenum>
13

> <r_i_glide_eff_state_penalty>
0.0169

> <i_glide_XP_PoseRank>
1

> <s_m_source_file>
glide-dock_pose_2-0011_raw.maegz

> <i_m_source_file_index>
2

> <i_lp_mmshare_version>
42013

> <s_epik_input>
YzEyW2NIXVtjSF1bY0hdYyhbY0hdMilPW0NIMl1bQ0gyXVtDSDJdW0NIMl1bQ0gyXUMoPU8pTihbQ0gzXSlbQ0BASF0oW0NIM10pQyg9TylbTkhdW0NAQEhdKFtDSDJdMSlbQ0BIXShbT0hdKVtDSDJdW05IXVtDSDJdYzNbY0hdW2NIXVtjSF1jKFtjSF0zKVtDSF0oW0NIM10pW0NIM10=

> <s_epik_cmdline>
J2VwaWtfcHl0aG9uJywgJy1waCcsICc3LjAnLCAnLXRuJywgJzgnLCAnLW1hJywgJzIwMCcsICctaW1hZScsICc8aW5maWxlLm1hZT4nLCAnLW9tYWUnLCAnPG91dGZpbGUubWFlPic=

> <r_lp_tautomer_probability>
1

> <r_epik_Ionization_Penalty>
0.0210188

> <r_epik_Ionization_Penalty_Charging>
0.0210181

> <r_epik_Ionization_Penalty_Neutral>
6.5275e-07

> <r_epik_State_Penalty>
0.0168797

> <r_epik_Charging_Adjusted_Penalty>
0.0378979

> <i_epik_Tot_Q>
1

> <i_epik_Tot_abs_Q>
1

> <i_f3d_flags>
0

> <s_lp_Force_Field>
OPLS_2005

> <r_lp_Energy>
36.6322

> <b_lp_Chiralities_Consistent>
1

> <s_lp_Variant>
BACE_11.smi:1-1

$$$$
BACE_11.smi:1
                    3D
 Structure written by MMmdl.
 80 82  0  0  1  0            999 V2000
   -1.9717   -1.0813   -3.9995 C   0  0  0  0  0  0
   -1.3615    0.3259   -3.8576 C   0  0  1  0  0  0
   -1.4272    0.9208   -2.4336 C   0  0  0  0  0  0
   -2.4718    0.8195   -1.7912 O   0  0  0  0  0  0
   -0.3551    1.5913   -1.9726 N   0  0  0  0  0  0
   -0.2674    2.4201   -0.7641 C   0  0  1  0  0  0
   -1.0184    3.7612   -0.9589 C   0  0  0  0  0  0
   -0.5086    4.5636   -2.1480 C   0  0  0  0  0  0
    0.4555    5.5743   -1.9604 C   0  0  0  0  0  0
    0.9485    6.2914   -3.0668 C   0  0  0  0  0  0
    0.4981    5.9891   -4.3669 C   0  0  0  0  0  0
   -0.4602    4.9655   -4.5696 C   0  0  0  0  0  0
   -0.9753    4.2854   -3.4497 C   0  0  0  0  0  0
   -0.9270    4.5627   -5.8009 O   0  0  0  0  0  0
   -0.3586    5.1365   -6.9670 C   0  0  0  0  0  0
   -0.8063    4.3336   -8.1986 C   0  0  0  0  0  0
   -0.0573    2.9972   -8.3923 C   0  0  0  0  0  0
   -0.8854    1.7222   -8.1181 C   0  0  0  0  0  0
   -1.1432    1.3655   -6.6363 C   0  0  0  0  0  0
    0.0863    0.8639   -5.8475 C   0  0  0  0  0  0
    1.1882    0.8754   -6.3997 O   0  0  0  0  0  0
   -0.0650    0.4065   -4.5751 N   0  0  0  0  0  0
    1.1059   -0.1820   -3.9073 C   0  0  0  0  0  0
   -0.6631    1.6796    0.5456 C   0  0  1  0  0  0
   -0.1209    0.2419    0.7026 C   0  0  0  0  0  0
    1.3131    0.1578    0.4355 N   0  0  0  0  0  0
    1.8307   -1.2054    0.4764 C   0  0  0  0  0  0
    3.2982   -1.2731    0.1011 C   0  0  0  0  0  0
    4.2304   -1.8625    0.9793 C   0  0  0  0  0  0
    5.5906   -1.9304    0.6216 C   0  0  0  0  0  0
    6.0231   -1.4120   -0.6144 C   0  0  0  0  0  0
    5.0972   -0.8206   -1.5019 C   0  0  0  0  0  0
    3.7361   -0.7572   -1.1367 C   0  0  0  0  0  0
    5.5507   -0.2533   -2.8411 C   0  0  0  0  0  0
    6.1160   -1.3489   -3.7580 C   0  0  0  0  0  0
    6.5443    0.9045   -2.6593 C   0  0  0  0  0  0
   -0.2333    2.4178    1.6723 O   0  0  0  0  0  0
   -2.0742    0.9803   -4.3543 H   0  0  0  0  0  0
    0.7931    2.6630   -0.6815 H   0  0  0  0  0  0
   -1.7504    1.6335    0.6112 H   0  0  0  0  0  0
   -2.9645   -1.1375   -3.5517 H   0  0  0  0  0  0
   -1.3484   -1.8338   -3.5157 H   0  0  0  0  0  0
   -2.0746   -1.3623   -5.0478 H   0  0  0  0  0  0
    0.4557    1.6122   -2.5742 H   0  0  0  0  0  0
   -2.0869    3.5817   -1.0845 H   0  0  0  0  0  0
   -0.9237    4.3759   -0.0631 H   0  0  0  0  0  0
    0.8221    5.8000   -0.9696 H   0  0  0  0  0  0
    1.6843    7.0682   -2.9197 H   0  0  0  0  0  0
    0.9065    6.5521   -5.1922 H   0  0  0  0  0  0
   -1.7162    3.5151   -3.6020 H   0  0  0  0  0  0
   -0.7021    6.1682   -7.0534 H   0  0  0  0  0  0
    0.7314    5.1517   -6.9224 H   0  0  0  0  0  0
   -1.8865    4.1841   -8.1862 H   0  0  0  0  0  0
   -0.6094    4.9521   -9.0751 H   0  0  0  0  0  0
    0.2501    2.9504   -9.4376 H   0  0  0  0  0  0
    0.8763    2.9923   -7.8310 H   0  0  0  0  0  0
   -1.8435    1.8083   -8.6319 H   0  0  0  0  0  0
   -0.3878    0.8766   -8.5953 H   0  0  0  0  0  0
   -1.5883    2.2176   -6.1273 H   0  0  0  0  0  0
   -1.8906    0.5719   -6.6189 H   0  0  0  0  0  0
    1.8373    0.5918   -3.6708 H   0  0  0  0  0  0
    1.5909   -0.9264   -4.5409 H   0  0  0  0  0  0
    0.8417   -0.6915   -2.9800 H   0  0  0  0  0  0
   -0.3425   -0.1347    1.7020 H   0  0  0  0  0  0
   -0.6534   -0.4131    0.0128 H   0  0  0  0  0  0
    1.6853   -1.6319    1.4697 H   0  0  0  0  0  0
    1.2777   -1.8368   -0.2206 H   0  0  0  0  0  0
    3.9067   -2.2638    1.9286 H   0  0  0  0  0  0
    6.3037   -2.3810    1.2960 H   0  0  0  0  0  0
    7.0690   -1.4707   -0.8774 H   0  0  0  0  0  0
    3.0202   -0.3074   -1.8070 H   0  0  0  0  0  0
    4.6720    0.1574   -3.3409 H   0  0  0  0  0  0
    5.3809   -2.1370   -3.9244 H   0  0  0  0  0  0
    7.0083   -1.8092   -3.3329 H   0  0  0  0  0  0
    6.3871   -0.9420   -4.7325 H   0  0  0  0  0  0
    6.1125    1.6976   -2.0477 H   0  0  0  0  0  0
    6.8155    1.3416   -3.6205 H   0  0  0  0  0  0
    7.4645    0.5744   -2.1764 H   0  0  0  0  0  0
    0.7116    2.4070    1.6913 H   0  0  0  0  0  0
    1.5125    0.5672   -0.4714 H   0  0  0  0  0  0
  1  2  1  0  0  0
  1 41  1  0  0  0
  1 42  1  0  0  0
  1 43  1  0  0  0
  2 38  1  0  0  0
  2 22  1  0  0  0
  2  3  1  0  0  0
  3  4  2  0  0  0
  3  5  1  0  0  0
  5  6  1  0  0  0
  5 44  1  0  0  0
  6 39  1  0  0  0
  6  7  1  0  0  0
  6 24  1  0  0  0
  7  8  1  0  0  0
  7 45  1  0  0  0
  7 46  1  0  0  0
  8 13  1  0  0  0
  8  9  2  0  0  0
  9 10  1  0  0  0
  9 47  1  0  0  0
 10 11  2  0  0  0
 10 48  1  0  0  0
 11 12  1  0  0  0
 11 49  1  0  0  0
 12 13  2  0  0  0
 12 14  1  0  0  0
 13 50  1  0  0  0
 14 15  1  0  0  0
 15 16  1  0  0  0
 15 51  1  0  0  0
 15 52  1  0  0  0
 16 17  1  0  0  0
 16 53  1  0  0  0
 16 54  1  0  0  0
 17 18  1  0  0  0
 17 55  1  0  0  0
 17 56  1  0  0  0
 18 19  1  0  0  0
 18 57  1  0  0  0
 18 58  1  0  0  0
 19 20  1  0  0  0
 19 59  1  0  0  0
 19 60  1  0  0  0
 20 21  2  0  0  0
 20 22  1  0  0  0
 22 23  1  0  0  0
 23 61  1  0  0  0
 23 62  1  0  0  0
 23 63  1  0  0  0
 24 40  1  0  0  0
 24 25  1  0  0  0
 24 37  1  0  0  0
 25 26  1  0  0  0
 25 64  1  0  0  0
 25 65  1  0  0  0
 26 27  1  0  0  0
 26 80  1  0  0  0
 27 28  1  0  0  0
 27 66  1  0  0  0
 27 67  1  0  0  0
 28 33  1  0  0  0
 28 29  2  0  0  0
 29 30  1  0  0  0
 29 68  1  0  0  0
 30 31  2  0  0  0
 30 69  1  0  0  0
 31 32  1  0  0  0
 31 70  1  0  0  0
 32 33  2  0  0  0
 32 34  1  0  0  0
 33 71  1  0  0  0
 34 35  1  0  0  0
 34 36  1  0  0  0
 34 72  1  0  0  0
 35 73  1  0  0  0
 35 74  1  0  0  0
 35 75  1  0  0  0
 36 76  1  0  0  0
 36 77  1  0  0  0
 36 78  1  0  0  0
 37 79  1  0  0  0
M  END
> <i_f3d_flags>
0

> <chiral flag>
1

> <version>
0

> <s_i_glide_gridfile>
base1a_gride_6

> <i_i_glide_lignum>
22

> <i_i_glide_rotatable_bonds>
7

> <r_i_docking_score>
-1.87671230987047

> <r_i_glide_ligand_efficiency>
-0.0507219543208236

> <r_i_glide_ligand_efficiency_sa>
-0.169016804342601

> <r_i_glide_ligand_efficiency_ln>
-0.407014903632113

> <r_glide_XP_GScore>
-1.89361230987047

> <r_i_glide_gscore>
-1.89361230987047

> <r_i_glide_evdw>
-33.1552886962891

> <r_i_glide_ecoul>
-7.14416551589966

> <r_i_glide_energy>
-40.2994542121887

> <r_i_glide_einternal>
3.01507019996643

> <r_i_glide_emodel>
-47.2991005726093

> <r_glide_XP_HBond>
-0.7

> <i_i_glide_confnum>
1

> <i_i_glide_posenum>
13

> <r_i_glide_eff_state_penalty>
0.0169

> <i_glide_XP_PoseRank>
1

> <s_m_source_file>
glide-dock_pose_2-0011_raw.maegz

> <i_m_source_file_index>
2

> <i_lp_mmshare_version>
42013

> <s_epik_input>
YzEyW2NIXVtjSF1bY0hdYyhbY0hdMilPW0NIMl1bQ0gyXVtDSDJdW0NIMl1bQ0gyXUMoPU8pTihbQ0gzXSlbQ0BASF0oW0NIM10pQyg9TylbTkhdW0NAQEhdKFtDSDJdMSlbQ0BIXShbT0hdKVtDSDJdW05IXVtDSDJdYzNbY0hdW2NIXVtjSF1jKFtjSF0zKVtDSF0oW0NIM10pW0NIM10=

> <s_epik_cmdline>
J2VwaWtfcHl0aG9uJywgJy1waCcsICc3LjAnLCAnLXRuJywgJzgnLCAnLW1hJywgJzIwMCcsICctaW1hZScsICc8aW5maWxlLm1hZT4nLCAnLW9tYWUnLCAnPG91dGZpbGUubWFlPic=

> <r_lp_tautomer_probability>
1

> <r_epik_Ionization_Penalty>
1.98875

> <r_epik_Ionization_Penalty_Charging>
0

> <r_epik_Ionization_Penalty_Neutral>
1.98875

> <r_epik_State_Penalty>
2.11661

> <r_epik_Charging_Adjusted_Penalty>
2.11661

> <i_epik_Tot_Q>
0

> <i_epik_Tot_abs_Q>
0

> <i_f3d_flags>
0

> <s_lp_Force_Field>
OPLS_2005

> <r_lp_Energy>
44.4425

> <b_lp_Chiralities_Consistent>
1

> <s_lp_Variant>
BACE_11.smi:1-2

$$$$
