BACE_8.smi:1
                    3D
 Structure written by MMmdl.
 78 80  0  0  1  0            999 V2000
   -1.2958    2.4878    3.1219 C   0  0  0  0  0  0
   -2.6115    1.7299    2.8684 C   0  0  2  0  0  0
   -3.2560    1.2716    4.1979 C   0  0  0  0  0  0
   -3.9858    2.3933    4.9546 C   0  0  0  0  0  0
   -5.1354    2.7625    4.2114 O   0  0  0  0  0  0
   -5.8199    3.8841    4.7432 C   0  0  0  0  0  0
   -7.0695    4.1840    3.8979 C   0  0  0  0  0  0
   -6.7824    4.7742    2.5038 C   0  0  0  0  0  0
   -6.1283    3.7801    1.5333 C   0  0  0  0  0  0
   -5.9530    4.3449    0.2052 N   0  0  0  0  0  0
   -5.2484    3.6465   -0.7850 C   0  0  0  0  0  0
   -4.7417    2.3394   -0.5871 C   0  0  0  0  0  0
   -4.0356    1.7165   -1.6397 C   0  0  0  0  0  0
   -3.8951    2.4132   -2.8567 C   0  0  0  0  0  0
   -4.4336    3.7102   -2.9633 C   0  0  0  0  0  0
   -5.0893    4.3130   -1.9482 N   0  0  0  0  0  0
   -4.2534    4.5684   -4.4485 Cl  0  0  0  0  0  0
   -3.5067    0.3174   -1.5087 C   0  0  0  0  0  0
   -3.8196   -0.5300   -2.3420 O   0  0  0  0  0  0
   -2.6870    0.0148   -0.4844 N   0  0  0  0  0  0
   -2.0069    0.9101    0.4585 C   0  0  1  0  0  0
   -2.4521    0.5373    1.8956 C   0  0  0  0  0  0
   -0.4654    0.8111    0.2700 C   0  0  1  0  0  0
    0.0714   -0.5787   -0.1327 C   0  0  0  0  0  0
    1.5440   -0.6320   -0.0480 N   0  3  0  0  0  0
    2.1176   -1.9356   -0.4305 C   0  0  0  0  0  0
    3.6300   -1.8915   -0.3592 C   0  0  0  0  0  0
    4.2939   -2.2444    0.8334 C   0  0  0  0  0  0
    5.6991   -2.1969    0.8979 C   0  0  0  0  0  0
    6.4445   -1.7969   -0.2276 C   0  0  0  0  0  0
    5.7897   -1.4426   -1.4267 C   0  0  0  0  0  0
    4.3793   -1.4917   -1.4854 C   0  0  0  0  0  0
    6.6040   -1.0148   -2.6413 C   0  0  0  0  0  0
    6.2953    0.4335   -3.0513 C   0  0  0  0  0  0
    6.4205   -1.9874   -3.8169 C   0  0  0  0  0  0
   -0.0692    1.7616   -0.6992 O   0  0  0  0  0  0
   -3.2986    2.4269    2.3920 H   0  0  0  0  0  0
   -2.3004    1.9449    0.2868 H   0  0  0  0  0  0
    0.0253    1.1050    1.1967 H   0  0  0  0  0  0
   -0.5269    1.8264    3.5221 H   0  0  0  0  0  0
   -1.4325    3.3013    3.8336 H   0  0  0  0  0  0
   -0.9141    2.9400    2.2070 H   0  0  0  0  0  0
   -3.9783    0.4755    4.0130 H   0  0  0  0  0  0
   -2.4916    0.8314    4.8394 H   0  0  0  0  0  0
   -4.2933    2.0388    5.9393 H   0  0  0  0  0  0
   -3.3306    3.2508    5.1094 H   0  0  0  0  0  0
   -6.1197    3.6672    5.7695 H   0  0  0  0  0  0
   -5.1636    4.7551    4.7727 H   0  0  0  0  0  0
   -7.6786    3.2839    3.8050 H   0  0  0  0  0  0
   -7.6812    4.9015    4.4456 H   0  0  0  0  0  0
   -7.7261    5.1128    2.0741 H   0  0  0  0  0  0
   -6.1580    5.6631    2.6026 H   0  0  0  0  0  0
   -5.1486    3.4961    1.9083 H   0  0  0  0  0  0
   -6.7320    2.8749    1.4602 H   0  0  0  0  0  0
   -6.2778    5.2836    0.0220 H   0  0  0  0  0  0
   -4.8884    1.8117    0.3439 H   0  0  0  0  0  0
   -3.3825    1.9650   -3.6958 H   0  0  0  0  0  0
   -2.4146   -0.9551   -0.4220 H   0  0  0  0  0  0
   -1.7814   -0.2107    2.3202 H   0  0  0  0  0  0
   -3.4253    0.0465    1.8366 H   0  0  0  0  0  0
   -0.3373   -1.3400    0.5330 H   0  0  0  0  0  0
   -0.2374   -0.8364   -1.1472 H   0  0  0  0  0  0
    1.9217    0.0761   -0.6617 H   0  0  0  0  0  0
    1.7389   -2.7146    0.2326 H   0  0  0  0  0  0
    1.8063   -2.1949   -1.4435 H   0  0  0  0  0  0
    3.7293   -2.5520    1.7017 H   0  0  0  0  0  0
    6.2070   -2.4679    1.8117 H   0  0  0  0  0  0
    7.5225   -1.7651   -0.1646 H   0  0  0  0  0  0
    3.8689   -1.2212   -2.3984 H   0  0  0  0  0  0
    7.6576   -1.0493   -2.3608 H   0  0  0  0  0  0
    6.4707    1.1212   -2.2234 H   0  0  0  0  0  0
    5.2590    0.5512   -3.3689 H   0  0  0  0  0  0
    6.9309    0.7482   -3.8794 H   0  0  0  0  0  0
    6.6924   -3.0035   -3.5301 H   0  0  0  0  0  0
    7.0509   -1.7048   -4.6607 H   0  0  0  0  0  0
    5.3888   -2.0051   -4.1689 H   0  0  0  0  0  0
   -0.3698    2.6157   -0.4260 H   0  0  0  0  0  0
    1.8250   -0.4208    0.8986 H   0  0  0  0  0  0
  1  2  1  0  0  0
  1 40  1  0  0  0
  1 41  1  0  0  0
  1 42  1  0  0  0
  2 37  1  0  0  0
  2 22  1  0  0  0
  2  3  1  0  0  0
  3  4  1  0  0  0
  3 43  1  0  0  0
  3 44  1  0  0  0
  4  5  1  0  0  0
  4 45  1  0  0  0
  4 46  1  0  0  0
  5  6  1  0  0  0
  6  7  1  0  0  0
  6 47  1  0  0  0
  6 48  1  0  0  0
  7  8  1  0  0  0
  7 49  1  0  0  0
  7 50  1  0  0  0
  8  9  1  0  0  0
  8 51  1  0  0  0
  8 52  1  0  0  0
  9 10  1  0  0  0
  9 53  1  0  0  0
  9 54  1  0  0  0
 10 11  1  0  0  0
 10 55  1  0  0  0
 11 16  1  0  0  0
 11 12  2  0  0  0
 12 13  1  0  0  0
 12 56  1  0  0  0
 13 14  2  0  0  0
 13 18  1  0  0  0
 14 15  1  0  0  0
 14 57  1  0  0  0
 15 16  2  0  0  0
 15 17  1  0  0  0
 18 19  2  0  0  0
 18 20  1  0  0  0
 20 21  1  0  0  0
 20 58  1  0  0  0
 21 38  1  0  0  0
 21 22  1  0  0  0
 21 23  1  0  0  0
 22 59  1  0  0  0
 22 60  1  0  0  0
 23 39  1  0  0  0
 23 24  1  0  0  0
 23 36  1  0  0  0
 24 25  1  0  0  0
 24 61  1  0  0  0
 24 62  1  0  0  0
 25 26  1  0  0  0
 25 63  1  0  0  0
 25 78  1  0  0  0
 26 27  1  0  0  0
 26 64  1  0  0  0
 26 65  1  0  0  0
 27 32  1  0  0  0
 27 28  2  0  0  0
 28 29  1  0  0  0
 28 66  1  0  0  0
 29 30  2  0  0  0
 29 67  1  0  0  0
 30 31  1  0  0  0
 30 68  1  0  0  0
 31 32  2  0  0  0
 31 33  1  0  0  0
 32 69  1  0  0  0
 33 34  1  0  0  0
 33 35  1  0  0  0
 33 70  1  0  0  0
 34 71  1  0  0  0
 34 72  1  0  0  0
 34 73  1  0  0  0
 35 74  1  0  0  0
 35 75  1  0  0  0
 35 76  1  0  0  0
 36 77  1  0  0  0
M  CHG  1  25   1
M  END
> <i_f3d_flags>
0

> <chiral flag>
1

> <version>
0

> <s_i_glide_gridfile>
base1a_gride_6

> <i_i_glide_lignum>
17

> <i_i_glide_rotatable_bonds>
7

> <r_i_docking_score>
-0.467674049720271

> <r_i_glide_ligand_efficiency>
-0.0129909458255631

> <r_i_glide_ligand_efficiency_sa>
-0.0428951579591021

> <r_i_glide_ligand_efficiency_ln>
-0.102033842556305

> <r_glide_XP_GScore>
-2.69717404972027

> <r_i_glide_gscore>
-2.69717404972027

> <r_i_glide_evdw>
-28.2942352294922

> <r_i_glide_ecoul>
-7.15127515792847

> <r_i_glide_energy>
-35.4455103874207

> <r_i_glide_einternal>
5.65525245666504

> <r_i_glide_emodel>
-43.5417905105797

> <r_glide_XP_HBond>
-1.11767001792405

> <i_i_glide_confnum>
1

> <i_i_glide_posenum>
3

> <r_i_glide_eff_state_penalty>
2.2295

> <i_glide_XP_PoseRank>
1

> <s_m_source_file>
glide-dock_pose_2-0009_raw.maegz

> <i_m_source_file_index>
1

> <i_lp_mmshare_version>
42013

> <s_epik_input>
W05IXTFbQ0gyXVtDSDJdW0NIMl1bQ0gyXU9bQ0gyXVtDSDJdW0NAQEhdKFtDSDNdKVtDSDJdW0NASF0oW05IXUMoPU8pYyhbY0hdYzEyKVtjSF1jKG4yKUNsKVtDQEhdKFtPSF0pW0NIMl1bTkhdW0NIMl1jM1tjSF1bY0hdW2NIXWMoW2NIXTMpW0NIXShbQ0gzXSlbQ0gzXQ==

> <s_epik_cmdline>
J2VwaWtfcHl0aG9uJywgJy1waCcsICc3LjAnLCAnLXRuJywgJzgnLCAnLW1hJywgJzIwMCcsICctaW1hZScsICc8aW5maWxlLm1hZT4nLCAnLW9tYWUnLCAnPG91dGZpbGUubWFlPic=

> <r_lp_tautomer_probability>
1

> <r_epik_Ionization_Penalty>
0.0175543

> <r_epik_Ionization_Penalty_Charging>
0.0175505

> <r_epik_Ionization_Penalty_Neutral>
3.77069e-06

> <r_epik_State_Penalty>
0.0139167

> <r_epik_Charging_Adjusted_Penalty>
0.0314671

> <i_epik_Tot_Q>
1

> <i_epik_Tot_abs_Q>
1

> <i_f3d_flags>
0

> <s_lp_Force_Field>
OPLS_2005

> <r_lp_Energy>
27.9011

> <b_lp_Chiralities_Consistent>
1

> <s_lp_Variant>
BACE_8.smi:1-1

$$$$
BACE_8.smi:1
                    3D
 Structure written by MMmdl.
 77 79  0  0  1  0            999 V2000
   -1.2454    2.7578    2.9218 C   0  0  0  0  0  0
   -2.4431    1.8479    2.5934 C   0  0  2  0  0  0
   -2.9248    1.0855    3.8503 C   0  0  0  0  0  0
   -3.7661    1.9401    4.8127 C   0  0  0  0  0  0
   -5.0036    2.2358    4.1868 O   0  0  0  0  0  0
   -5.8119    3.1378    4.9230 C   0  0  0  0  0  0
   -7.1444    3.3628    4.1885 C   0  0  0  0  0  0
   -7.0410    4.2008    2.8996 C   0  0  0  0  0  0
   -6.3061    3.4902    1.7535 C   0  0  0  0  0  0
   -6.3108    4.2754    0.5301 N   0  0  0  0  0  0
   -5.5676    3.8696   -0.5868 C   0  0  0  0  0  0
   -4.8575    2.6459   -0.6307 C   0  0  0  0  0  0
   -4.1289    2.3234   -1.7968 C   0  0  0  0  0  0
   -4.1668    3.2231   -2.8809 C   0  0  0  0  0  0
   -4.8998    4.4181   -2.7468 C   0  0  0  0  0  0
   -5.5806    4.7340   -1.6241 N   0  0  0  0  0  0
   -4.9368    5.5260   -4.0681 Cl  0  0  0  0  0  0
   -3.3883    1.0235   -1.9235 C   0  0  0  0  0  0
   -3.6271    0.2806   -2.8732 O   0  0  0  0  0  0
   -2.4672    0.6972   -0.9977 N   0  0  0  0  0  0
   -1.8766    1.5294    0.0573 C   0  0  1  0  0  0
   -2.1651    0.8674    1.4290 C   0  0  0  0  0  0
   -0.3564    1.7075   -0.2081 C   0  0  1  0  0  0
    0.3623    0.4532   -0.7612 C   0  0  0  0  0  0
    1.8005    0.4586   -0.4930 N   0  0  0  0  0  0
    2.1694    0.1453    0.8863 C   0  0  0  0  0  0
    3.6666    0.2310    1.0947 C   0  0  0  0  0  0
    4.4870   -0.8791    0.8091 C   0  0  0  0  0  0
    5.8801   -0.7908    0.9920 C   0  0  0  0  0  0
    6.4564    0.4063    1.4588 C   0  0  0  0  0  0
    5.6433    1.5242    1.7452 C   0  0  0  0  0  0
    4.2463    1.4291    1.5598 C   0  0  0  0  0  0
    6.2724    2.8163    2.2505 C   0  0  0  0  0  0
    5.8016    3.1539    3.6738 C   0  0  0  0  0  0
    6.0314    3.9838    1.2806 C   0  0  0  0  0  0
   -0.1991    2.7699   -1.1273 O   0  0  0  0  0  0
   -3.2572    2.4922    2.2669 H   0  0  0  0  0  0
   -2.3311    2.5193    0.0707 H   0  0  0  0  0  0
    0.1226    2.0352    0.7105 H   0  0  0  0  0  0
   -0.3552    2.1740    3.1579 H   0  0  0  0  0  0
   -1.4523    3.4028    3.7750 H   0  0  0  0  0  0
   -1.0085    3.4184    2.0882 H   0  0  0  0  0  0
   -3.5290    0.2246    3.5613 H   0  0  0  0  0  0
   -2.0632    0.6756    4.3789 H   0  0  0  0  0  0
   -3.9532    1.3874    5.7343 H   0  0  0  0  0  0
   -3.2394    2.8547    5.0857 H   0  0  0  0  0  0
   -6.0081    2.7188    5.9112 H   0  0  0  0  0  0
   -5.2931    4.0865    5.0689 H   0  0  0  0  0  0
   -7.6156    2.4028    3.9745 H   0  0  0  0  0  0
   -7.8204    3.8804    4.8699 H   0  0  0  0  0  0
   -8.0510    4.4456    2.5688 H   0  0  0  0  0  0
   -6.5547    5.1522    3.1187 H   0  0  0  0  0  0
   -5.2711    3.3167    2.0365 H   0  0  0  0  0  0
   -6.7641    2.5200    1.5582 H   0  0  0  0  0  0
   -6.7840    5.1675    0.5196 H   0  0  0  0  0  0
   -4.8657    1.9572    0.2013 H   0  0  0  0  0  0
   -3.6405    3.0057   -3.7992 H   0  0  0  0  0  0
   -2.0354   -0.2077   -1.1148 H   0  0  0  0  0  0
   -1.3601    0.1817    1.6971 H   0  0  0  0  0  0
   -3.0517    0.2394    1.3256 H   0  0  0  0  0  0
   -0.0711   -0.4468   -0.3235 H   0  0  0  0  0  0
    0.1872    0.3744   -1.8348 H   0  0  0  0  0  0
    2.1910    1.3597   -0.7499 H   0  0  0  0  0  0
    1.6872    0.8259    1.5874 H   0  0  0  0  0  0
    1.8312   -0.8580    1.1478 H   0  0  0  0  0  0
    4.0500   -1.7983    0.4475 H   0  0  0  0  0  0
    6.5080   -1.6418    0.7724 H   0  0  0  0  0  0
    7.5266    0.4608    1.5949 H   0  0  0  0  0  0
    3.6144    2.2787    1.7739 H   0  0  0  0  0  0
    7.3510    2.6613    2.2996 H   0  0  0  0  0  0
    6.0278    2.3399    4.3632 H   0  0  0  0  0  0
    4.7267    3.3329    3.7112 H   0  0  0  0  0  0
    6.2983    4.0491    4.0488 H   0  0  0  0  0  0
    6.4180    3.7532    0.2873 H   0  0  0  0  0  0
    6.5323    4.8886    1.6260 H   0  0  0  0  0  0
    4.9703    4.2134    1.1803 H   0  0  0  0  0  0
    0.7246    2.9156   -1.2627 H   0  0  0  0  0  0
  1  2  1  0  0  0
  1 40  1  0  0  0
  1 41  1  0  0  0
  1 42  1  0  0  0
  2 37  1  0  0  0
  2 22  1  0  0  0
  2  3  1  0  0  0
  3  4  1  0  0  0
  3 43  1  0  0  0
  3 44  1  0  0  0
  4  5  1  0  0  0
  4 45  1  0  0  0
  4 46  1  0  0  0
  5  6  1  0  0  0
  6  7  1  0  0  0
  6 47  1  0  0  0
  6 48  1  0  0  0
  7  8  1  0  0  0
  7 49  1  0  0  0
  7 50  1  0  0  0
  8  9  1  0  0  0
  8 51  1  0  0  0
  8 52  1  0  0  0
  9 10  1  0  0  0
  9 53  1  0  0  0
  9 54  1  0  0  0
 10 11  1  0  0  0
 10 55  1  0  0  0
 11 16  1  0  0  0
 11 12  2  0  0  0
 12 13  1  0  0  0
 12 56  1  0  0  0
 13 14  2  0  0  0
 13 18  1  0  0  0
 14 15  1  0  0  0
 14 57  1  0  0  0
 15 16  2  0  0  0
 15 17  1  0  0  0
 18 19  2  0  0  0
 18 20  1  0  0  0
 20 21  1  0  0  0
 20 58  1  0  0  0
 21 38  1  0  0  0
 21 22  1  0  0  0
 21 23  1  0  0  0
 22 59  1  0  0  0
 22 60  1  0  0  0
 23 39  1  0  0  0
 23 24  1  0  0  0
 23 36  1  0  0  0
 24 25  1  0  0  0
 24 61  1  0  0  0
 24 62  1  0  0  0
 25 26  1  0  0  0
 25 63  1  0  0  0
 26 27  1  0  0  0
 26 64  1  0  0  0
 26 65  1  0  0  0
 27 32  1  0  0  0
 27 28  2  0  0  0
 28 29  1  0  0  0
 28 66  1  0  0  0
 29 30  2  0  0  0
 29 67  1  0  0  0
 30 31  1  0  0  0
 30 68  1  0  0  0
 31 32  2  0  0  0
 31 33  1  0  0  0
 32 69  1  0  0  0
 33 34  1  0  0  0
 33 35  1  0  0  0
 33 70  1  0  0  0
 34 71  1  0  0  0
 34 72  1  0  0  0
 34 73  1  0  0  0
 35 74  1  0  0  0
 35 75  1  0  0  0
 35 76  1  0  0  0
 36 77  1  0  0  0
M  END
> <i_f3d_flags>
0

> <chiral flag>
1

> <version>
0

> <s_i_glide_gridfile>
base1a_gride_6

> <i_i_glide_lignum>
17

> <i_i_glide_rotatable_bonds>
7

> <r_i_docking_score>
-0.467674049720271

> <r_i_glide_ligand_efficiency>
-0.0129909458255631

> <r_i_glide_ligand_efficiency_sa>
-0.0428951579591021

> <r_i_glide_ligand_efficiency_ln>
-0.102033842556305

> <r_glide_XP_GScore>
-2.69717404972027

> <r_i_glide_gscore>
-2.69717404972027

> <r_i_glide_evdw>
-28.2942352294922

> <r_i_glide_ecoul>
-7.15127515792847

> <r_i_glide_energy>
-35.4455103874207

> <r_i_glide_einternal>
5.65525245666504

> <r_i_glide_emodel>
-43.5417905105797

> <r_glide_XP_HBond>
-1.11767001792405

> <i_i_glide_confnum>
1

> <i_i_glide_posenum>
3

> <r_i_glide_eff_state_penalty>
2.2295

> <i_glide_XP_PoseRank>
1

> <s_m_source_file>
glide-dock_pose_2-0009_raw.maegz

> <i_m_source_file_index>
1

> <i_lp_mmshare_version>
42013

> <s_epik_input>
W05IXTFbQ0gyXVtDSDJdW0NIMl1bQ0gyXU9bQ0gyXVtDSDJdW0NAQEhdKFtDSDNdKVtDSDJdW0NASF0oW05IXUMoPU8pYyhbY0hdYzEyKVtjSF1jKG4yKUNsKVtDQEhdKFtPSF0pW0NIMl1bTkhdW0NIMl1jM1tjSF1bY0hdW2NIXWMoW2NIXTMpW0NIXShbQ0gzXSlbQ0gzXQ==

> <s_epik_cmdline>
J2VwaWtfcHl0aG9uJywgJy1waCcsICc3LjAnLCAnLXRuJywgJzgnLCAnLW1hJywgJzIwMCcsICctaW1hZScsICc8aW5maWxlLm1hZT4nLCAnLW9tYWUnLCAnPG91dGZpbGUubWFlPic=

> <r_lp_tautomer_probability>
1

> <r_epik_Ionization_Penalty>
2.09386

> <r_epik_Ionization_Penalty_Charging>
0

> <r_epik_Ionization_Penalty_Neutral>
2.09386

> <r_epik_State_Penalty>
2.2295

> <r_epik_Charging_Adjusted_Penalty>
2.2295

> <i_epik_Tot_Q>
0

> <i_epik_Tot_abs_Q>
0

> <i_f3d_flags>
0

> <s_lp_Force_Field>
OPLS_2005

> <r_lp_Energy>
36.7598

> <b_lp_Chiralities_Consistent>
1

> <s_lp_Variant>
BACE_8.smi:1-2

$$$$
BACE_9.smi:1
                    3D
 Structure written by MMmdl.
 88 90  0  0  1  0            999 V2000
   -0.8895    3.0870   -4.3290 C   0  0  0  0  0  0
   -1.6735    2.7876   -3.0408 C   0  0  2  0  0  0
   -3.0353    3.5182   -3.0770 C   0  0  0  0  0  0
   -3.9886    3.1501   -1.9302 C   0  0  0  0  0  0
   -5.4009    3.7308   -2.1125 C   0  0  0  0  0  0
   -6.3283    3.4321   -0.9232 C   0  0  0  0  0  0
   -6.8348    1.9765   -0.8801 C   0  0  0  0  0  0
   -7.4951    1.5864    0.4568 C   0  0  0  0  0  0
   -6.5189    0.9674    1.4734 C   0  0  0  0  0  0
   -5.5112    1.9187    1.9177 N   0  0  0  0  0  0
   -4.2440    1.4251    2.2507 C   0  0  0  0  0  0
   -4.0661    0.1806    2.8956 C   0  0  0  0  0  0
   -2.7720   -0.2724    3.2265 C   0  0  0  0  0  0
   -1.6490    0.5107    2.8904 C   0  0  0  0  0  0
   -1.8155    1.7418    2.2234 C   0  0  0  0  0  0
   -3.1156    2.2039    1.9275 C   0  0  0  0  0  0
   -0.6165    2.5691    1.8705 C   0  0  0  0  0  0
    0.1010    3.0177    2.7612 O   0  0  0  0  0  0
   -0.3508    2.7927    0.5694 N   0  0  0  0  0  0
   -0.9446    2.1491   -0.6082 C   0  0  1  0  0  0
   -0.8178    3.1352   -1.7935 C   0  0  0  0  0  0
   -0.2709    0.7759   -0.9176 C   0  0  1  0  0  0
    1.1820    0.6042   -0.4263 C   0  0  0  0  0  0
    1.7959   -0.6140   -0.9897 N   0  3  0  0  0  0
    3.1795   -0.8541   -0.5391 C   0  0  0  0  0  0
    3.7306   -2.1147   -1.1732 C   0  0  0  0  0  0
    3.5785   -3.3580   -0.5255 C   0  0  0  0  0  0
    4.0847   -4.5289   -1.1202 C   0  0  0  0  0  0
    4.7430   -4.4611   -2.3630 C   0  0  0  0  0  0
    4.9010   -3.2208   -3.0198 C   0  0  0  0  0  0
    4.3910   -2.0500   -2.4181 C   0  0  0  0  0  0
    5.6130   -3.1390   -4.3644 C   0  0  0  0  0  0
    4.8572   -3.9158   -5.4538 C   0  0  0  0  0  0
    7.0784   -3.5894   -4.2595 C   0  0  0  0  0  0
   -1.0699   -0.2580   -0.3772 O   0  0  0  0  0  0
   -2.5884   -1.6143    3.9147 C   0  0  0  0  0  0
   -3.4885   -1.8210    4.9944 O   0  0  0  0  0  0
   -3.1924   -1.0363    6.1393 C   0  0  0  0  0  0
   -1.8815    1.7179   -3.0502 H   0  0  0  0  0  0
   -2.0074    1.9917   -0.4450 H   0  0  0  0  0  0
   -0.2762    0.6134   -1.9950 H   0  0  0  0  0  0
   -0.6442    4.1468   -4.4062 H   0  0  0  0  0  0
   -1.4637    2.8132   -5.2147 H   0  0  0  0  0  0
    0.0442    2.5246   -4.3627 H   0  0  0  0  0  0
   -2.8783    4.5977   -3.0877 H   0  0  0  0  0  0
   -3.5304    3.2795   -4.0192 H   0  0  0  0  0  0
   -4.0439    2.0651   -1.8454 H   0  0  0  0  0  0
   -3.5795    3.5191   -0.9901 H   0  0  0  0  0  0
   -5.3200    4.8123   -2.2267 H   0  0  0  0  0  0
   -5.8484    3.3601   -3.0356 H   0  0  0  0  0  0
   -5.8103    3.6953   -0.0022 H   0  0  0  0  0  0
   -7.1931    4.0951   -0.9707 H   0  0  0  0  0  0
   -7.5597    1.8488   -1.6848 H   0  0  0  0  0  0
   -6.0308    1.2740   -1.0977 H   0  0  0  0  0  0
   -8.0186    2.4389    0.8913 H   0  0  0  0  0  0
   -8.2643    0.8417    0.2502 H   0  0  0  0  0  0
   -7.0712    0.6202    2.3471 H   0  0  0  0  0  0
   -6.0444    0.0909    1.0298 H   0  0  0  0  0  0
   -5.5329    2.8202    1.4631 H   0  0  0  0  0  0
   -4.9207   -0.4275    3.1550 H   0  0  0  0  0  0
   -0.6562    0.1597    3.1332 H   0  0  0  0  0  0
   -3.2472    3.1582    1.4372 H   0  0  0  0  0  0
    0.4315    3.4020    0.3785 H   0  0  0  0  0  0
    0.2367    3.1879   -2.0691 H   0  0  0  0  0  0
   -1.0722    4.1452   -1.4676 H   0  0  0  0  0  0
    1.7812    1.4622   -0.7342 H   0  0  0  0  0  0
    1.2214    0.5541    0.6629 H   0  0  0  0  0  0
    3.8090   -0.0038   -0.8046 H   0  0  0  0  0  0
    3.2041   -0.9471    0.5476 H   0  0  0  0  0  0
    3.0734   -3.4182    0.4274 H   0  0  0  0  0  0
    3.9676   -5.4810   -0.6235 H   0  0  0  0  0  0
    5.1263   -5.3669   -2.8097 H   0  0  0  0  0  0
    4.5051   -1.0963   -2.9129 H   0  0  0  0  0  0
    5.6238   -2.0918   -4.6699 H   0  0  0  0  0  0
    3.8375   -3.5453   -5.5627 H   0  0  0  0  0  0
    4.8022   -4.9804   -5.2256 H   0  0  0  0  0  0
    5.3494   -3.8118   -6.4210 H   0  0  0  0  0  0
    7.6173   -2.9998   -3.5170 H   0  0  0  0  0  0
    7.5938   -3.4670   -5.2126 H   0  0  0  0  0  0
    7.1594   -4.6388   -3.9746 H   0  0  0  0  0  0
   -1.9504   -0.1650   -0.7094 H   0  0  0  0  0  0
   -2.7682   -2.3940    3.1741 H   0  0  0  0  0  0
   -1.5582   -1.7402    4.2520 H   0  0  0  0  0  0
   -3.9123   -1.2562    6.9275 H   0  0  0  0  0  0
   -3.2512    0.0310    5.9233 H   0  0  0  0  0  0
   -2.1964   -1.2608    6.5231 H   0  0  0  0  0  0
    1.2296   -1.4066   -0.7218 H   0  0  0  0  0  0
    1.7926   -0.5425   -1.9971 H   0  0  0  0  0  0
  1  2  1  0  0  0
  1 42  1  0  0  0
  1 43  1  0  0  0
  1 44  1  0  0  0
  2 39  1  0  0  0
  2 21  1  0  0  0
  2  3  1  0  0  0
  3  4  1  0  0  0
  3 45  1  0  0  0
  3 46  1  0  0  0
  4  5  1  0  0  0
  4 47  1  0  0  0
  4 48  1  0  0  0
  5  6  1  0  0  0
  5 49  1  0  0  0
  5 50  1  0  0  0
  6  7  1  0  0  0
  6 51  1  0  0  0
  6 52  1  0  0  0
  7  8  1  0  0  0
  7 53  1  0  0  0
  7 54  1  0  0  0
  8  9  1  0  0  0
  8 55  1  0  0  0
  8 56  1  0  0  0
  9 10  1  0  0  0
  9 57  1  0  0  0
  9 58  1  0  0  0
 10 11  1  0  0  0
 10 59  1  0  0  0
 11 16  1  0  0  0
 11 12  2  0  0  0
 12 13  1  0  0  0
 12 60  1  0  0  0
 13 14  2  0  0  0
 13 36  1  0  0  0
 14 15  1  0  0  0
 14 61  1  0  0  0
 15 16  2  0  0  0
 15 17  1  0  0  0
 16 62  1  0  0  0
 17 18  2  0  0  0
 17 19  1  0  0  0
 19 20  1  0  0  0
 19 63  1  0  0  0
 20 40  1  0  0  0
 20 21  1  0  0  0
 20 22  1  0  0  0
 21 64  1  0  0  0
 21 65  1  0  0  0
 22 41  1  0  0  0
 22 23  1  0  0  0
 22 35  1  0  0  0
 23 24  1  0  0  0
 23 66  1  0  0  0
 23 67  1  0  0  0
 24 25  1  0  0  0
 24 87  1  0  0  0
 24 88  1  0  0  0
 25 26  1  0  0  0
 25 68  1  0  0  0
 25 69  1  0  0  0
 26 31  1  0  0  0
 26 27  2  0  0  0
 27 28  1  0  0  0
 27 70  1  0  0  0
 28 29  2  0  0  0
 28 71  1  0  0  0
 29 30  1  0  0  0
 29 72  1  0  0  0
 30 31  2  0  0  0
 30 32  1  0  0  0
 31 73  1  0  0  0
 32 33  1  0  0  0
 32 34  1  0  0  0
 32 74  1  0  0  0
 33 75  1  0  0  0
 33 76  1  0  0  0
 33 77  1  0  0  0
 34 78  1  0  0  0
 34 79  1  0  0  0
 34 80  1  0  0  0
 35 81  1  0  0  0
 36 37  1  0  0  0
 36 82  1  0  0  0
 36 83  1  0  0  0
 37 38  1  0  0  0
 38 84  1  0  0  0
 38 85  1  0  0  0
 38 86  1  0  0  0
M  CHG  1  24   1
M  END
> <i_f3d_flags>
0

> <chiral flag>
1

> <version>
0

> <s_i_glide_gridfile>
base1a_gride_6

> <i_i_glide_lignum>
18

> <i_i_glide_rotatable_bonds>
9

> <r_i_docking_score>
-3.72497797593213

> <r_i_glide_ligand_efficiency>
-0.0980257362087402

> <r_i_glide_ligand_efficiency_sa>
-0.329560113967546

> <r_i_glide_ligand_efficiency_ln>
-0.803214829361121

> <r_glide_XP_GScore>
-3.73797797593213

> <r_i_glide_gscore>
-3.73797797593213

> <r_i_glide_evdw>
-18.03857421875

> <r_i_glide_ecoul>
-19.7492370605469

> <r_i_glide_energy>
-37.7878112792969

> <r_i_glide_einternal>
2.62614607810974

> <r_i_glide_emodel>
-46.7398259517554

> <r_glide_XP_HBond>
-1.07986845034746

> <i_i_glide_confnum>
1

> <i_i_glide_posenum>
2

> <r_i_glide_eff_state_penalty>
0.013

> <i_glide_XP_PoseRank>
1

> <s_m_source_file>
glide-dock_pose_2-0009_raw.maegz

> <i_m_source_file_index>
2

> <i_lp_mmshare_version>
42013

> <s_epik_input>
W05IXTFbQ0gyXVtDSDJdW0NIMl1bQ0gyXVtDSDJdW0NIMl1bQ0gyXVtDQEBIXShbQ0gzXSlbQ0gyXVtDQEhdKFtOSF1DKD1PKWMoW2NIXTIpW2NIXWMoW2NIXWMxMilbQ0gyXU9bQ0gzXSlbQ0BIXShbT0hdKVtDSDJdW05IXVtDSDJdYzNbY0hdW2NIXVtjSF1jKFtjSF0zKVtDSF0oW0NIM10pW0NIM10=

> <s_epik_cmdline>
J2VwaWtfcHl0aG9uJywgJy1waCcsICc3LjAnLCAnLXRuJywgJzgnLCAnLW1hJywgJzIwMCcsICctaW1hZScsICc8aW5maWxlLm1hZT4nLCAnLW9tYWUnLCAnPG91dGZpbGUubWFlPic=

> <r_epik_Ionization_Penalty>
0.0170656

> <r_epik_Ionization_Penalty_Charging>
0.0165153

> <r_epik_Ionization_Penalty_Neutral>
0.000550372

> <r_epik_State_Penalty>
0.0130399

> <r_epik_Charging_Adjusted_Penalty>
0.0295552

> <i_epik_Tot_Q>
1

> <i_epik_Tot_abs_Q>
1

> <i_f3d_flags>
0

> <s_lp_Force_Field>
OPLS_2005

> <r_lp_Energy>
38.0252

> <b_lp_Chiralities_Consistent>
1

> <s_lp_Variant>
BACE_9.smi:1-1

$$$$
BACE_9.smi:1
                    3D
 Structure written by MMmdl.
 87 89  0  0  1  0            999 V2000
    0.1463    1.3653   -3.9594 C   0  0  0  0  0  0
   -0.8620    1.4895   -2.8054 C   0  0  2  0  0  0
   -2.0958    2.2923   -3.2749 C   0  0  0  0  0  0
   -3.2515    2.3345   -2.2640 C   0  0  0  0  0  0
   -4.5204    2.9881   -2.8370 C   0  0  0  0  0  0
   -5.6456    3.1254   -1.7991 C   0  0  0  0  0  0
   -6.3644    1.7987   -1.4841 C   0  0  0  0  0  0
   -7.2668    1.8622   -0.2365 C   0  0  0  0  0  0
   -6.5547    1.4489    1.0638 C   0  0  0  0  0  0
   -5.4912    2.3738    1.4259 N   0  0  0  0  0  0
   -4.3737    1.8595    2.0946 C   0  0  0  0  0  0
   -4.4805    0.8330    3.0600 C   0  0  0  0  0  0
   -3.3309    0.3580    3.7246 C   0  0  0  0  0  0
   -2.0666    0.8956    3.4068 C   0  0  0  0  0  0
   -1.9479    1.9040    2.4287 C   0  0  0  0  0  0
   -3.1065    2.3948    1.7905 C   0  0  0  0  0  0
   -0.6026    2.4842    2.1127 C   0  0  0  0  0  0
    0.0231    3.0831    2.9842 O   0  0  0  0  0  0
   -0.1117    2.3336    0.8684 N   0  0  0  0  0  0
   -0.5824    1.4474   -0.2027 C   0  0  1  0  0  0
   -0.1774    2.0913   -1.5498 C   0  0  0  0  0  0
    0.0056    0.0114   -0.0468 C   0  0  1  0  0  0
    1.3924   -0.0662    0.6267 C   0  0  0  0  0  0
    2.0715   -1.3191    0.3121 N   0  0  0  0  0  0
    3.3780   -1.4321    0.9538 C   0  0  0  0  0  0
    4.1262   -2.6886    0.5495 C   0  0  0  0  0  0
    4.3613   -2.9716   -0.8125 C   0  0  0  0  0  0
    5.0701   -4.1304   -1.1813 C   0  0  0  0  0  0
    5.5522   -5.0073   -0.1911 C   0  0  0  0  0  0
    5.3280   -4.7311    1.1758 C   0  0  0  0  0  0
    4.6125   -3.5693    1.5387 C   0  0  0  0  0  0
    5.8558   -5.6695    2.2538 C   0  0  0  0  0  0
    7.3917   -5.7272    2.2499 C   0  0  0  0  0  0
    5.2354   -7.0708    2.1411 C   0  0  0  0  0  0
   -0.9156   -0.7703    0.6875 O   0  0  0  0  0  0
   -3.4510   -0.7498    4.7576 C   0  0  0  0  0  0
   -2.6334   -0.5464    5.9021 O   0  0  0  0  0  0
   -3.0963    0.4896    6.7548 C   0  0  0  0  0  0
   -1.2008    0.4780   -2.5826 H   0  0  0  0  0  0
   -1.6687    1.3901   -0.1937 H   0  0  0  0  0  0
    0.0741   -0.4537   -1.0300 H   0  0  0  0  0  0
    0.5366    2.3410   -4.2509 H   0  0  0  0  0  0
   -0.3132    0.9139   -4.8391 H   0  0  0  0  0  0
    0.9922    0.7372   -3.6776 H   0  0  0  0  0  0
   -1.7997    3.3101   -3.5324 H   0  0  0  0  0  0
   -2.4685    1.8467   -4.1982 H   0  0  0  0  0  0
   -3.4741    1.3209   -1.9315 H   0  0  0  0  0  0
   -2.9378    2.8918   -1.3817 H   0  0  0  0  0  0
   -4.2641    3.9828   -3.2033 H   0  0  0  0  0  0
   -4.8778    2.4280   -3.7020 H   0  0  0  0  0  0
   -5.2345    3.5750   -0.8966 H   0  0  0  0  0  0
   -6.3852    3.8368   -2.1680 H   0  0  0  0  0  0
   -6.9720    1.5317   -2.3494 H   0  0  0  0  0  0
   -5.6504    0.9839   -1.3663 H   0  0  0  0  0  0
   -7.7156    2.8513   -0.1360 H   0  0  0  0  0  0
   -8.0995    1.1739   -0.3845 H   0  0  0  0  0  0
   -7.2752    1.4172    1.8816 H   0  0  0  0  0  0
   -6.1576    0.4389    0.9518 H   0  0  0  0  0  0
   -5.3054    3.1053    0.7547 H   0  0  0  0  0  0
   -5.4458    0.4159    3.3071 H   0  0  0  0  0  0
   -1.1848    0.5259    3.9107 H   0  0  0  0  0  0
   -3.0208    3.1842    1.0572 H   0  0  0  0  0  0
    0.7697    2.7912    0.6867 H   0  0  0  0  0  0
    0.9067    2.0111   -1.6431 H   0  0  0  0  0  0
   -0.3760    3.1641   -1.5246 H   0  0  0  0  0  0
    2.0100    0.7595    0.2711 H   0  0  0  0  0  0
    1.2981    0.0590    1.7066 H   0  0  0  0  0  0
    3.9995   -0.5757    0.6902 H   0  0  0  0  0  0
    3.2626   -1.4109    2.0382 H   0  0  0  0  0  0
    3.9995   -2.3000   -1.5773 H   0  0  0  0  0  0
    5.2470   -4.3453   -2.2247 H   0  0  0  0  0  0
    6.0978   -5.8915   -0.4860 H   0  0  0  0  0  0
    4.4386   -3.3483    2.5819 H   0  0  0  0  0  0
    5.5544   -5.2653    3.2210 H   0  0  0  0  0  0
    7.8206   -4.7336    2.3843 H   0  0  0  0  0  0
    7.7777   -6.1324    1.3141 H   0  0  0  0  0  0
    7.7622   -6.3568    3.0594 H   0  0  0  0  0  0
    4.1475   -7.0214    2.1939 H   0  0  0  0  0  0
    5.5748   -7.7151    2.9525 H   0  0  0  0  0  0
    5.5018   -7.5560    1.2018 H   0  0  0  0  0  0
   -1.0175   -0.3875    1.5455 H   0  0  0  0  0  0
   -4.4910   -0.8894    5.0573 H   0  0  0  0  0  0
   -3.1386   -1.6803    4.2835 H   0  0  0  0  0  0
   -2.4324    0.5766    7.6148 H   0  0  0  0  0  0
   -4.0992    0.2752    7.1258 H   0  0  0  0  0  0
   -3.1105    1.4544    6.2467 H   0  0  0  0  0  0
    1.4844   -2.0919    0.6106 H   0  0  0  0  0  0
  1  2  1  0  0  0
  1 42  1  0  0  0
  1 43  1  0  0  0
  1 44  1  0  0  0
  2 39  1  0  0  0
  2 21  1  0  0  0
  2  3  1  0  0  0
  3  4  1  0  0  0
  3 45  1  0  0  0
  3 46  1  0  0  0
  4  5  1  0  0  0
  4 47  1  0  0  0
  4 48  1  0  0  0
  5  6  1  0  0  0
  5 49  1  0  0  0
  5 50  1  0  0  0
  6  7  1  0  0  0
  6 51  1  0  0  0
  6 52  1  0  0  0
  7  8  1  0  0  0
  7 53  1  0  0  0
  7 54  1  0  0  0
  8  9  1  0  0  0
  8 55  1  0  0  0
  8 56  1  0  0  0
  9 10  1  0  0  0
  9 57  1  0  0  0
  9 58  1  0  0  0
 10 11  1  0  0  0
 10 59  1  0  0  0
 11 16  1  0  0  0
 11 12  2  0  0  0
 12 13  1  0  0  0
 12 60  1  0  0  0
 13 14  2  0  0  0
 13 36  1  0  0  0
 14 15  1  0  0  0
 14 61  1  0  0  0
 15 16  2  0  0  0
 15 17  1  0  0  0
 16 62  1  0  0  0
 17 18  2  0  0  0
 17 19  1  0  0  0
 19 20  1  0  0  0
 19 63  1  0  0  0
 20 40  1  0  0  0
 20 21  1  0  0  0
 20 22  1  0  0  0
 21 64  1  0  0  0
 21 65  1  0  0  0
 22 41  1  0  0  0
 22 23  1  0  0  0
 22 35  1  0  0  0
 23 24  1  0  0  0
 23 66  1  0  0  0
 23 67  1  0  0  0
 24 25  1  0  0  0
 24 87  1  0  0  0
 25 26  1  0  0  0
 25 68  1  0  0  0
 25 69  1  0  0  0
 26 31  1  0  0  0
 26 27  2  0  0  0
 27 28  1  0  0  0
 27 70  1  0  0  0
 28 29  2  0  0  0
 28 71  1  0  0  0
 29 30  1  0  0  0
 29 72  1  0  0  0
 30 31  2  0  0  0
 30 32  1  0  0  0
 31 73  1  0  0  0
 32 33  1  0  0  0
 32 34  1  0  0  0
 32 74  1  0  0  0
 33 75  1  0  0  0
 33 76  1  0  0  0
 33 77  1  0  0  0
 34 78  1  0  0  0
 34 79  1  0  0  0
 34 80  1  0  0  0
 35 81  1  0  0  0
 36 37  1  0  0  0
 36 82  1  0  0  0
 36 83  1  0  0  0
 37 38  1  0  0  0
 38 84  1  0  0  0
 38 85  1  0  0  0
 38 86  1  0  0  0
M  END
> <i_f3d_flags>
0

> <chiral flag>
1

> <version>
0

> <s_i_glide_gridfile>
base1a_gride_6

> <i_i_glide_lignum>
18

> <i_i_glide_rotatable_bonds>
9

> <r_i_docking_score>
-3.72497797593213

> <r_i_glide_ligand_efficiency>
-0.0980257362087402

> <r_i_glide_ligand_efficiency_sa>
-0.329560113967546

> <r_i_glide_ligand_efficiency_ln>
-0.803214829361121

> <r_glide_XP_GScore>
-3.73797797593213

> <r_i_glide_gscore>
-3.73797797593213

> <r_i_glide_evdw>
-18.03857421875

> <r_i_glide_ecoul>
-19.7492370605469

> <r_i_glide_energy>
-37.7878112792969

> <r_i_glide_einternal>
2.62614607810974

> <r_i_glide_emodel>
-46.7398259517554

> <r_glide_XP_HBond>
-1.07986845034746

> <i_i_glide_confnum>
1

> <i_i_glide_posenum>
2

> <r_i_glide_eff_state_penalty>
0.013

> <i_glide_XP_PoseRank>
1

> <s_m_source_file>
glide-dock_pose_2-0009_raw.maegz

> <i_m_source_file_index>
2

> <i_lp_mmshare_version>
42013

> <s_epik_input>
W05IXTFbQ0gyXVtDSDJdW0NIMl1bQ0gyXVtDSDJdW0NIMl1bQ0gyXVtDQEBIXShbQ0gzXSlbQ0gyXVtDQEhdKFtOSF1DKD1PKWMoW2NIXTIpW2NIXWMoW2NIXWMxMilbQ0gyXU9bQ0gzXSlbQ0BIXShbT0hdKVtDSDJdW05IXVtDSDJdYzNbY0hdW2NIXVtjSF1jKFtjSF0zKVtDSF0oW0NIM10pW0NIM10=

> <s_epik_cmdline>
J2VwaWtfcHl0aG9uJywgJy1waCcsICc3LjAnLCAnLXRuJywgJzgnLCAnLW1hJywgJzIwMCcsICctaW1hZScsICc8aW5maWxlLm1hZT4nLCAnLW9tYWUnLCAnPG91dGZpbGUubWFlPic=

> <r_epik_Ionization_Penalty>
2.12998

> <r_epik_Ionization_Penalty_Charging>
0

> <r_epik_Ionization_Penalty_Neutral>
2.12998

> <r_epik_State_Penalty>
2.26762

> <r_epik_Charging_Adjusted_Penalty>
2.26762

> <i_epik_Tot_Q>
0

> <i_epik_Tot_abs_Q>
0

> <i_f3d_flags>
0

> <s_lp_Force_Field>
OPLS_2005

> <r_lp_Energy>
47.2954

> <b_lp_Chiralities_Consistent>
1

> <s_lp_Variant>
BACE_9.smi:1-2

$$$$
