BACE_2.smi:1
                    3D
 Structure written by MMmdl.
 96 98  0  0  1  0            999 V2000
   -3.1966    2.2799    2.6050 C   0  0  0  0  0  0
   -2.5562    1.7152    3.7231 C   0  0  0  0  0  0
   -1.2687    1.1555    3.5963 C   0  0  0  0  0  0
   -0.5738    0.5566    4.8127 C   0  0  0  0  0  0
   -0.3415   -0.9530    4.6452 C   0  0  0  0  0  0
    0.7302    1.2987    5.1436 C   0  0  0  0  0  0
   -0.6382    1.1536    2.3338 C   0  0  0  0  0  0
   -1.2835    1.7007    1.2016 C   0  0  0  0  0  0
   -2.5638    2.2936    1.3467 C   0  0  0  0  0  0
   -0.6057    1.6661   -0.1633 C   0  0  2  0  0  0
   -1.5703    2.0988   -1.2780 C   0  0  0  0  0  0
   -2.4781    3.2685   -0.8505 C   0  0  0  0  0  0
   -3.2348    2.8857    0.2985 O   0  0  0  0  0  0
   -1.6872    4.5572   -0.5391 C   0  0  0  0  0  0
   -3.5111    3.5559   -1.9520 C   0  0  0  0  0  0
   -0.0826    0.3149   -0.4656 N   0  3  0  0  0  0
    1.3903    0.2005   -0.4564 C   0  0  0  0  0  0
    1.8340   -1.2775   -0.5292 C   0  0  1  0  0  0
    1.4792   -1.7311   -1.8197 O   0  0  0  0  0  0
    3.3590   -1.5061   -0.3104 C   0  0  1  0  0  0
    3.8836   -0.7195    0.8105 N   0  0  0  0  0  0
    3.5255   -0.8018    2.1043 C   0  0  0  0  0  0
    2.6747   -1.5859    2.5226 O   0  0  0  0  0  0
    4.2245    0.1616    3.0733 C   0  0  2  0  0  0
    4.0874    1.6552    2.6931 C   0  0  0  0  0  0
    3.7621   -2.9963   -0.1333 C   0  0  0  0  0  0
    3.9073   -3.8358   -1.4271 C   0  0  2  0  0  0
    4.0819   -5.3309   -1.1038 C   0  0  0  0  0  0
    4.9768   -3.3177   -2.4279 C   0  0  0  0  0  0
    6.2887   -2.7381   -1.8538 C   0  0  0  0  0  0
    7.1741   -3.7303   -1.0790 C   0  0  0  0  0  0
    8.4655   -3.1057   -0.5225 C   0  0  0  0  0  0
    8.2005   -1.9590    0.4686 C   0  0  0  0  0  0
    9.4269   -1.5802    1.3117 C   0  0  0  0  0  0
    9.2467   -0.3196    2.1831 C   0  0  0  0  0  0
    8.0998   -0.3929    3.2209 C   0  0  0  0  0  0
    6.7071    0.0405    2.7042 C   0  0  0  0  0  0
    6.6462    0.6764    1.6518 O   0  0  0  0  0  0
    5.5974   -0.2810    3.4244 N   0  0  0  0  0  0
    5.6919   -1.1900    4.5754 C   0  0  0  0  0  0
    0.2174    2.3817   -0.1284 H   0  0  0  0  0  0
    1.2727   -1.8551    0.2067 H   0  0  0  0  0  0
    3.8794   -1.0967   -1.1758 H   0  0  0  0  0  0
    3.6387    0.1009    3.9912 H   0  0  0  0  0  0
    2.9575   -3.7934   -1.9573 H   0  0  0  0  0  0
   -4.1775    2.7185    2.7171 H   0  0  0  0  0  0
   -3.0572    1.7216    4.6801 H   0  0  0  0  0  0
   -1.2373    0.6842    5.6691 H   0  0  0  0  0  0
   -1.2824   -1.4768    4.4743 H   0  0  0  0  0  0
    0.1155   -1.3806    5.5381 H   0  0  0  0  0  0
    0.3159   -1.1687    3.8035 H   0  0  0  0  0  0
    0.5457    2.3608    5.3079 H   0  0  0  0  0  0
    1.4586    1.2079    4.3391 H   0  0  0  0  0  0
    1.1893    0.9009    6.0489 H   0  0  0  0  0  0
    0.3451    0.7185    2.2399 H   0  0  0  0  0  0
   -1.0141    2.3432   -2.1842 H   0  0  0  0  0  0
   -2.2139    1.2552   -1.5344 H   0  0  0  0  0  0
   -1.1125    4.8850   -1.4057 H   0  0  0  0  0  0
   -0.9891    4.4273    0.2875 H   0  0  0  0  0  0
   -2.3596    5.3703   -0.2634 H   0  0  0  0  0  0
   -3.0261    3.8566   -2.8815 H   0  0  0  0  0  0
   -4.1898    4.3574   -1.6586 H   0  0  0  0  0  0
   -4.1187    2.6759   -2.1652 H   0  0  0  0  0  0
   -0.4615   -0.3263    0.2167 H   0  0  0  0  0  0
    1.8114    0.7762   -1.2820 H   0  0  0  0  0  0
    1.7468    0.6672    0.4599 H   0  0  0  0  0  0
    1.7198   -2.6426   -1.8936 H   0  0  0  0  0  0
    4.6012   -0.0465    0.5793 H   0  0  0  0  0  0
    3.0377    1.9488    2.6658 H   0  0  0  0  0  0
    4.4961    1.8898    1.7110 H   0  0  0  0  0  0
    4.5816    2.2934    3.4260 H   0  0  0  0  0  0
    4.7023   -3.0530    0.4155 H   0  0  0  0  0  0
    3.0348   -3.4778    0.5215 H   0  0  0  0  0  0
    4.9773   -5.5344   -0.5207 H   0  0  0  0  0  0
    4.1385   -5.9271   -2.0148 H   0  0  0  0  0  0
    3.2338   -5.7041   -0.5291 H   0  0  0  0  0  0
    5.2134   -4.0992   -3.1508 H   0  0  0  0  0  0
    4.5155   -2.5253   -3.0186 H   0  0  0  0  0  0
    6.8724   -2.3354   -2.6823 H   0  0  0  0  0  0
    6.0558   -1.8802   -1.2263 H   0  0  0  0  0  0
    6.6243   -4.1473   -0.2385 H   0  0  0  0  0  0
    7.4284   -4.5702   -1.7264 H   0  0  0  0  0  0
    9.0323   -3.8902   -0.0197 H   0  0  0  0  0  0
    9.0953   -2.7511   -1.3392 H   0  0  0  0  0  0
    7.8609   -1.0809   -0.0804 H   0  0  0  0  0  0
    7.3870   -2.2485    1.1342 H   0  0  0  0  0  0
    9.6991   -2.4226    1.9487 H   0  0  0  0  0  0
   10.2770   -1.4194    0.6477 H   0  0  0  0  0  0
   10.1785   -0.1630    2.7277 H   0  0  0  0  0  0
    9.1491    0.5600    1.5458 H   0  0  0  0  0  0
    8.0798   -1.4023    3.6297 H   0  0  0  0  0  0
    8.3414    0.2693    4.0529 H   0  0  0  0  0  0
    6.3807   -0.8010    5.3263 H   0  0  0  0  0  0
    6.0399   -2.1739    4.2584 H   0  0  0  0  0  0
    4.7378   -1.3498    5.0776 H   0  0  0  0  0  0
   -0.4093    0.0361   -1.3799 H   0  0  0  0  0  0
  1  9  1  0  0  0
  1  2  2  0  0  0
  1 46  1  0  0  0
  2  3  1  0  0  0
  2 47  1  0  0  0
  3  4  1  0  0  0
  3  7  2  0  0  0
  4  5  1  0  0  0
  4  6  1  0  0  0
  4 48  1  0  0  0
  5 49  1  0  0  0
  5 50  1  0  0  0
  5 51  1  0  0  0
  6 52  1  0  0  0
  6 53  1  0  0  0
  6 54  1  0  0  0
  7  8  1  0  0  0
  7 55  1  0  0  0
  8  9  2  0  0  0
  8 10  1  0  0  0
  9 13  1  0  0  0
 10 41  1  0  0  0
 10 11  1  0  0  0
 10 16  1  0  0  0
 11 12  1  0  0  0
 11 56  1  0  0  0
 11 57  1  0  0  0
 12 13  1  0  0  0
 12 14  1  0  0  0
 12 15  1  0  0  0
 14 58  1  0  0  0
 14 59  1  0  0  0
 14 60  1  0  0  0
 15 61  1  0  0  0
 15 62  1  0  0  0
 15 63  1  0  0  0
 16 17  1  0  0  0
 16 64  1  0  0  0
 16 96  1  0  0  0
 17 18  1  0  0  0
 17 65  1  0  0  0
 17 66  1  0  0  0
 18 42  1  0  0  0
 18 19  1  0  0  0
 18 20  1  0  0  0
 19 67  1  0  0  0
 20 43  1  0  0  0
 20 21  1  0  0  0
 20 26  1  0  0  0
 21 22  1  0  0  0
 21 68  1  0  0  0
 22 23  2  0  0  0
 22 24  1  0  0  0
 24 44  1  0  0  0
 24 39  1  0  0  0
 24 25  1  0  0  0
 25 69  1  0  0  0
 25 70  1  0  0  0
 25 71  1  0  0  0
 26 27  1  0  0  0
 26 72  1  0  0  0
 26 73  1  0  0  0
 27 45  1  0  0  0
 27 28  1  0  0  0
 27 29  1  0  0  0
 28 74  1  0  0  0
 28 75  1  0  0  0
 28 76  1  0  0  0
 29 30  1  0  0  0
 29 77  1  0  0  0
 29 78  1  0  0  0
 30 31  1  0  0  0
 30 79  1  0  0  0
 30 80  1  0  0  0
 31 32  1  0  0  0
 31 81  1  0  0  0
 31 82  1  0  0  0
 32 33  1  0  0  0
 32 83  1  0  0  0
 32 84  1  0  0  0
 33 34  1  0  0  0
 33 85  1  0  0  0
 33 86  1  0  0  0
 34 35  1  0  0  0
 34 87  1  0  0  0
 34 88  1  0  0  0
 35 36  1  0  0  0
 35 89  1  0  0  0
 35 90  1  0  0  0
 36 37  1  0  0  0
 36 91  1  0  0  0
 36 92  1  0  0  0
 37 38  2  0  0  0
 37 39  1  0  0  0
 39 40  1  0  0  0
 40 93  1  0  0  0
 40 94  1  0  0  0
 40 95  1  0  0  0
M  CHG  1  16   1
M  END
> <i_f3d_flags>
0

> <chiral flag>
1

> <version>
0

> <s_i_glide_gridfile>
base1a_gride_6

> <i_i_glide_lignum>
3

> <i_i_glide_rotatable_bonds>
6

> <r_i_docking_score>
0.773908552823294

> <r_i_glide_ligand_efficiency>
0.0193477138205824

> <r_i_glide_ligand_efficiency_sa>
0.066168250431398

> <r_i_glide_ligand_efficiency_ln>
0.165051919205191

> <r_glide_XP_GScore>
-1.41479144717671

> <r_i_glide_gscore>
-1.41479144717671

> <r_i_glide_evdw>
-29.960620880127

> <r_i_glide_ecoul>
-5.67006826400757

> <r_i_glide_energy>
-35.6306891441345

> <r_i_glide_einternal>
4.8390212059021

> <r_i_glide_emodel>
-42.7457052103774

> <r_glide_XP_HBond>
-1.86980784759297

> <i_i_glide_confnum>
1

> <i_i_glide_posenum>
4

> <r_i_glide_eff_state_penalty>
2.1887

> <i_glide_XP_PoseRank>
1

> <s_m_source_file>
glide-dock_pose_2-0002_raw.maegz

> <i_m_source_file_index>
1

> <i_lp_mmshare_version>
42013

> <s_epik_input>
W0NIM11bQ0hdKFtDSDNdKWMoW2NIXTEpW2NIXVtjSF1jKGMxMilPQyhbQ0gzXSkoW0NIM10pW0NIMl1bQ0BASF0yW05IXVtDSDJdW0NAQEhdKFtPSF0pW0NASF0zW05IXUMoPU8pW0NASF0oW0NIM10pTihbQ0gzXSlDKD1PKVtDSDJdW0NIMl1bQ0gyXVtDSDJdW0NIMl1bQ0gyXVtDSDJdW0NIMl1bQ0BIXShbQ0gyXTMpW0NIM10=

> <s_epik_cmdline>
J2VwaWtfcHl0aG9uJywgJy1waCcsICc3LjAnLCAnLXRuJywgJzgnLCAnLW1hJywgJzIwMCcsICctaW1hZScsICc8aW5maWxlLm1hZT4nLCAnLW9tYWUnLCAnPG91dGZpbGUubWFlPic=

> <r_lp_tautomer_probability>
1

> <r_epik_Ionization_Penalty>
0.0187326

> <r_epik_Ionization_Penalty_Charging>
0.0187322

> <r_epik_Ionization_Penalty_Neutral>
3.10907e-07

> <r_epik_State_Penalty>
0.014922

> <r_epik_Charging_Adjusted_Penalty>
0.0336543

> <i_epik_Tot_Q>
1

> <i_epik_Tot_abs_Q>
1

> <i_f3d_flags>
0

> <s_lp_Force_Field>
OPLS_2005

> <r_lp_Energy>
39.6154

> <b_lp_Chiralities_Consistent>
1

> <s_lp_Variant>
BACE_2.smi:1-1

$$$$
BACE_2.smi:1
                    3D
 Structure written by MMmdl.
 95 97  0  0  1  0            999 V2000
   -2.7656    2.3771    2.8849 C   0  0  0  0  0  0
   -2.1781    1.8247    4.0375 C   0  0  0  0  0  0
   -0.9366    1.1631    3.9538 C   0  0  0  0  0  0
   -0.2928    0.5936    5.2122 C   0  0  0  0  0  0
    0.1128   -0.8813    5.0507 C   0  0  0  0  0  0
    0.8870    1.4632    5.6712 C   0  0  0  0  0  0
   -0.2991    1.0527    2.6997 C   0  0  0  0  0  0
   -0.8865    1.5941    1.5345 C   0  0  0  0  0  0
   -2.1224    2.2828    1.6352 C   0  0  0  0  0  0
   -0.1876    1.4535    0.1859 C   0  0  2  0  0  0
   -1.1189    1.8814   -0.9646 C   0  0  0  0  0  0
   -1.9629    3.1216   -0.6112 C   0  0  0  0  0  0
   -2.7470    2.8605    0.5516 O   0  0  0  0  0  0
   -1.0979    4.3768   -0.3698 C   0  0  0  0  0  0
   -2.9717    3.4042   -1.7367 C   0  0  0  0  0  0
    0.3418    0.0988   -0.0178 N   0  0  0  0  0  0
    1.1047   -0.1058   -1.2510 C   0  0  0  0  0  0
    1.7517   -1.5100   -1.3000 C   0  0  1  0  0  0
    1.7729   -1.8620   -2.6691 O   0  0  0  0  0  0
    3.2194   -1.6028   -0.7807 C   0  0  1  0  0  0
    3.5024   -0.6969    0.3371 N   0  0  0  0  0  0
    3.0876   -0.8014    1.6110 C   0  0  0  0  0  0
    2.3319   -1.6878    2.0077 O   0  0  0  0  0  0
    3.6043    0.2619    2.5910 C   0  0  2  0  0  0
    3.4602    1.7249    2.1065 C   0  0  0  0  0  0
    3.6775   -3.0487   -0.4401 C   0  0  0  0  0  0
    4.0094   -3.9711   -1.6382 C   0  0  2  0  0  0
    4.1914   -5.4313   -1.1851 C   0  0  0  0  0  0
    5.1768   -3.4796   -2.5375 C   0  0  0  0  0  0
    6.3905   -2.8132   -1.8516 C   0  0  0  0  0  0
    7.1987   -3.7138   -0.9004 C   0  0  0  0  0  0
    8.3866   -3.0011   -0.2308 C   0  0  0  0  0  0
    7.9566   -1.8081    0.6405 C   0  0  0  0  0  0
    9.0454   -1.3369    1.6158 C   0  0  0  0  0  0
    8.7095   -0.0389    2.3801 C   0  0  0  0  0  0
    7.4422   -0.1031    3.2683 C   0  0  0  0  0  0
    6.1121    0.2332    2.5534 C   0  0  0  0  0  0
    6.1632    0.7930    1.4581 O   0  0  0  0  0  0
    4.9323   -0.0889    3.1511 N   0  0  0  0  0  0
    4.9094   -0.8984    4.3778 C   0  0  0  0  0  0
    0.6512    2.1496    0.2154 H   0  0  0  0  0  0
    1.1141   -2.2274   -0.7811 H   0  0  0  0  0  0
    3.8680   -1.2100   -1.5635 H   0  0  0  0  0  0
    2.9021    0.2226    3.4225 H   0  0  0  0  0  0
    3.1294   -4.0049   -2.2789 H   0  0  0  0  0  0
   -3.7135    2.8892    2.9625 H   0  0  0  0  0  0
   -2.6829    1.9205    4.9875 H   0  0  0  0  0  0
   -1.0419    0.6251    6.0046 H   0  0  0  0  0  0
   -0.7414   -1.4919    4.7569 H   0  0  0  0  0  0
    0.4967   -1.2842    5.9882 H   0  0  0  0  0  0
    0.8905   -1.0125    4.2994 H   0  0  0  0  0  0
    0.5641    2.4861    5.8667 H   0  0  0  0  0  0
    1.6728    1.5045    4.9176 H   0  0  0  0  0  0
    1.3274    1.0763    6.5905 H   0  0  0  0  0  0
    0.6499    0.5465    2.6313 H   0  0  0  0  0  0
   -0.5470    2.0625   -1.8752 H   0  0  0  0  0  0
   -1.8016    1.0594   -1.1872 H   0  0  0  0  0  0
   -0.5001    4.6173   -1.2492 H   0  0  0  0  0  0
   -0.4121    4.2523    0.4681 H   0  0  0  0  0  0
   -1.7207    5.2437   -0.1472 H   0  0  0  0  0  0
   -2.4653    3.6210   -2.6778 H   0  0  0  0  0  0
   -3.6033    4.2600   -1.4960 H   0  0  0  0  0  0
   -3.6289    2.5499   -1.9034 H   0  0  0  0  0  0
    0.9033   -0.1732    0.7830 H   0  0  0  0  0  0
    0.4287    0.0068   -2.0992 H   0  0  0  0  0  0
    1.8678    0.6644   -1.3690 H   0  0  0  0  0  0
    2.1132   -2.7400   -2.7470 H   0  0  0  0  0  0
    4.1166    0.0766    0.1254 H   0  0  0  0  0  0
    2.4136    1.9722    1.9323 H   0  0  0  0  0  0
    3.9824    1.9245    1.1717 H   0  0  0  0  0  0
    3.8325    2.4233    2.8563 H   0  0  0  0  0  0
    4.5470   -3.0078    0.2158 H   0  0  0  0  0  0
    2.9019   -3.5255    0.1602 H   0  0  0  0  0  0
    5.0053   -5.5545   -0.4743 H   0  0  0  0  0  0
    4.3913   -6.0854   -2.0342 H   0  0  0  0  0  0
    3.2866   -5.8011   -0.7021 H   0  0  0  0  0  0
    5.5231   -4.2976   -3.1701 H   0  0  0  0  0  0
    4.7676   -2.7459   -3.2331 H   0  0  0  0  0  0
    7.0621   -2.4495   -2.6300 H   0  0  0  0  0  0
    6.0560   -1.9220   -1.3245 H   0  0  0  0  0  0
    6.5582   -4.0929   -0.1077 H   0  0  0  0  0  0
    7.5603   -4.5856   -1.4465 H   0  0  0  0  0  0
    8.9111   -3.7277    0.3908 H   0  0  0  0  0  0
    9.1033   -2.6718   -0.9839 H   0  0  0  0  0  0
    7.6688   -0.9774   -0.0039 H   0  0  0  0  0  0
    7.0691   -2.0878    1.2084 H   0  0  0  0  0  0
    9.2543   -2.1328    2.3316 H   0  0  0  0  0  0
    9.9722   -1.1797    1.0628 H   0  0  0  0  0  0
    9.5577    0.1880    3.0267 H   0  0  0  0  0  0
    8.6628    0.7989    1.6833 H   0  0  0  0  0  0
    7.4073   -1.0859    3.7366 H   0  0  0  0  0  0
    7.5494    0.6187    4.0786 H   0  0  0  0  0  0
    5.4761   -0.4171    5.1760 H   0  0  0  0  0  0
    5.3353   -1.8852    4.1924 H   0  0  0  0  0  0
    3.9043   -1.0676    4.7643 H   0  0  0  0  0  0
  1  9  1  0  0  0
  1  2  2  0  0  0
  1 46  1  0  0  0
  2  3  1  0  0  0
  2 47  1  0  0  0
  3  4  1  0  0  0
  3  7  2  0  0  0
  4  5  1  0  0  0
  4  6  1  0  0  0
  4 48  1  0  0  0
  5 49  1  0  0  0
  5 50  1  0  0  0
  5 51  1  0  0  0
  6 52  1  0  0  0
  6 53  1  0  0  0
  6 54  1  0  0  0
  7  8  1  0  0  0
  7 55  1  0  0  0
  8  9  2  0  0  0
  8 10  1  0  0  0
  9 13  1  0  0  0
 10 41  1  0  0  0
 10 11  1  0  0  0
 10 16  1  0  0  0
 11 12  1  0  0  0
 11 56  1  0  0  0
 11 57  1  0  0  0
 12 13  1  0  0  0
 12 14  1  0  0  0
 12 15  1  0  0  0
 14 58  1  0  0  0
 14 59  1  0  0  0
 14 60  1  0  0  0
 15 61  1  0  0  0
 15 62  1  0  0  0
 15 63  1  0  0  0
 16 17  1  0  0  0
 16 64  1  0  0  0
 17 18  1  0  0  0
 17 65  1  0  0  0
 17 66  1  0  0  0
 18 42  1  0  0  0
 18 19  1  0  0  0
 18 20  1  0  0  0
 19 67  1  0  0  0
 20 43  1  0  0  0
 20 21  1  0  0  0
 20 26  1  0  0  0
 21 22  1  0  0  0
 21 68  1  0  0  0
 22 23  2  0  0  0
 22 24  1  0  0  0
 24 44  1  0  0  0
 24 39  1  0  0  0
 24 25  1  0  0  0
 25 69  1  0  0  0
 25 70  1  0  0  0
 25 71  1  0  0  0
 26 27  1  0  0  0
 26 72  1  0  0  0
 26 73  1  0  0  0
 27 45  1  0  0  0
 27 28  1  0  0  0
 27 29  1  0  0  0
 28 74  1  0  0  0
 28 75  1  0  0  0
 28 76  1  0  0  0
 29 30  1  0  0  0
 29 77  1  0  0  0
 29 78  1  0  0  0
 30 31  1  0  0  0
 30 79  1  0  0  0
 30 80  1  0  0  0
 31 32  1  0  0  0
 31 81  1  0  0  0
 31 82  1  0  0  0
 32 33  1  0  0  0
 32 83  1  0  0  0
 32 84  1  0  0  0
 33 34  1  0  0  0
 33 85  1  0  0  0
 33 86  1  0  0  0
 34 35  1  0  0  0
 34 87  1  0  0  0
 34 88  1  0  0  0
 35 36  1  0  0  0
 35 89  1  0  0  0
 35 90  1  0  0  0
 36 37  1  0  0  0
 36 91  1  0  0  0
 36 92  1  0  0  0
 37 38  2  0  0  0
 37 39  1  0  0  0
 39 40  1  0  0  0
 40 93  1  0  0  0
 40 94  1  0  0  0
 40 95  1  0  0  0
M  END
> <i_f3d_flags>
0

> <chiral flag>
1

> <version>
0

> <s_i_glide_gridfile>
base1a_gride_6

> <i_i_glide_lignum>
3

> <i_i_glide_rotatable_bonds>
6

> <r_i_docking_score>
0.773908552823294

> <r_i_glide_ligand_efficiency>
0.0193477138205824

> <r_i_glide_ligand_efficiency_sa>
0.066168250431398

> <r_i_glide_ligand_efficiency_ln>
0.165051919205191

> <r_glide_XP_GScore>
-1.41479144717671

> <r_i_glide_gscore>
-1.41479144717671

> <r_i_glide_evdw>
-29.960620880127

> <r_i_glide_ecoul>
-5.67006826400757

> <r_i_glide_energy>
-35.6306891441345

> <r_i_glide_einternal>
4.8390212059021

> <r_i_glide_emodel>
-42.7457052103774

> <r_glide_XP_HBond>
-1.86980784759297

> <i_i_glide_confnum>
1

> <i_i_glide_posenum>
4

> <r_i_glide_eff_state_penalty>
2.1887

> <i_glide_XP_PoseRank>
1

> <s_m_source_file>
glide-dock_pose_2-0002_raw.maegz

> <i_m_source_file_index>
1

> <i_lp_mmshare_version>
42013

> <s_epik_input>
W0NIM11bQ0hdKFtDSDNdKWMoW2NIXTEpW2NIXVtjSF1jKGMxMilPQyhbQ0gzXSkoW0NIM10pW0NIMl1bQ0BASF0yW05IXVtDSDJdW0NAQEhdKFtPSF0pW0NASF0zW05IXUMoPU8pW0NASF0oW0NIM10pTihbQ0gzXSlDKD1PKVtDSDJdW0NIMl1bQ0gyXVtDSDJdW0NIMl1bQ0gyXVtDSDJdW0NIMl1bQ0BIXShbQ0gyXTMpW0NIM10=

> <s_epik_cmdline>
J2VwaWtfcHl0aG9uJywgJy1waCcsICc3LjAnLCAnLXRuJywgJzgnLCAnLW1hJywgJzIwMCcsICctaW1hZScsICc8aW5maWxlLm1hZT4nLCAnLW9tYWUnLCAnPG91dGZpbGUubWFlPic=

> <r_lp_tautomer_probability>
1

> <r_epik_Ionization_Penalty>
2.05583

> <r_epik_Ionization_Penalty_Charging>
0

> <r_epik_Ionization_Penalty_Neutral>
2.05583

> <r_epik_State_Penalty>
2.18867

> <r_epik_Charging_Adjusted_Penalty>
2.18867

> <i_epik_Tot_Q>
0

> <i_epik_Tot_abs_Q>
0

> <i_f3d_flags>
0

> <s_lp_Force_Field>
OPLS_2005

> <r_lp_Energy>
44.8053

> <b_lp_Chiralities_Consistent>
1

> <s_lp_Variant>
BACE_2.smi:1-2

$$$$
BACE_3.smi:1
                    3D
 Structure written by MMmdl.
 86 87  0  0  1  0            999 V2000
   -2.1299    3.4899   -1.5932 C   0  0  0  0  0  0
   -2.1441    3.8605   -2.9509 C   0  0  0  0  0  0
   -2.3658    2.8886   -3.9449 C   0  0  0  0  0  0
   -2.5816    1.5394   -3.5875 C   0  0  0  0  0  0
   -2.8063    0.4790   -4.6577 C   0  0  0  0  0  0
   -4.0504    0.7787   -5.5087 C   0  0  0  0  0  0
   -1.5543    0.2881   -5.5279 C   0  0  0  0  0  0
   -2.5740    1.1756   -2.2237 C   0  0  0  0  0  0
   -2.3410    2.1451   -1.2252 C   0  0  0  0  0  0
   -2.3028    1.7445    0.2389 C   0  0  0  0  0  0
   -0.9192    1.5265    0.7101 N   0  3  0  0  0  0
   -0.2775    0.2869    0.2169 C   0  0  0  0  0  0
    1.2028    0.1801    0.6598 C   0  0  0  0  0  0
    1.1936    0.2097    2.0749 O   0  0  0  0  0  0
    1.8942    1.2886    0.1182 O   0  0  0  0  0  0
    1.9120   -1.1552    0.2399 C   0  0  1  0  0  0
    1.3287   -1.8019   -0.9384 N   0  0  0  0  0  0
    1.4389   -1.4183   -2.2220 C   0  0  0  0  0  0
    2.0169   -0.3917   -2.5756 O   0  0  0  0  0  0
    0.7951   -2.3388   -3.2682 C   0  0  2  0  0  0
   -0.7012   -2.6393   -3.0182 C   0  0  0  0  0  0
    3.4641   -1.1291    0.1488 C   0  0  0  0  0  0
    4.2221   -0.9930    1.4911 C   0  0  2  0  0  0
    5.7139   -0.6898    1.2617 C   0  0  0  0  0  0
    4.0086   -2.1666    2.4873 C   0  0  0  0  0  0
    3.8869   -3.5964    1.9130 C   0  0  0  0  0  0
    5.1284   -4.1360    1.1800 C   0  0  0  0  0  0
    4.9288   -5.5375    0.5764 C   0  0  0  0  0  0
    3.8131   -5.5853   -0.4827 C   0  0  0  0  0  0
    3.8422   -6.8552   -1.3454 C   0  0  0  0  0  0
    2.6309   -7.0223   -2.2864 C   0  0  0  0  0  0
    2.4447   -5.8913   -3.3277 C   0  0  0  0  0  0
    1.6001   -4.6834   -2.8567 C   0  0  0  0  0  0
    0.9092   -4.8114   -1.8456 O   0  0  0  0  0  0
    1.6358   -3.5248   -3.5711 N   0  0  0  0  0  0
    2.6037   -3.3519   -4.6639 C   0  0  0  0  0  0
    1.6512   -1.8856    1.0050 H   0  0  0  0  0  0
    0.7649   -1.7402   -4.1788 H   0  0  0  0  0  0
    3.8404   -0.1007    1.9870 H   0  0  0  0  0  0
   -1.9511    4.2403   -0.8369 H   0  0  0  0  0  0
   -1.9794    4.8905   -3.2312 H   0  0  0  0  0  0
   -2.3662    3.1837   -4.9840 H   0  0  0  0  0  0
   -2.9930   -0.4684   -4.1508 H   0  0  0  0  0  0
   -4.9407    0.8635   -4.8845 H   0  0  0  0  0  0
   -4.2306   -0.0185   -6.2305 H   0  0  0  0  0  0
   -3.9444    1.7090   -6.0671 H   0  0  0  0  0  0
   -0.6867    0.0417   -4.9155 H   0  0  0  0  0  0
   -1.3157    1.1902   -6.0920 H   0  0  0  0  0  0
   -1.6933   -0.5224   -6.2439 H   0  0  0  0  0  0
   -2.7330    0.1452   -1.9402 H   0  0  0  0  0  0
   -2.7493    2.5416    0.8342 H   0  0  0  0  0  0
   -2.9049    0.8509    0.4098 H   0  0  0  0  0  0
   -0.8462   -0.5736    0.5727 H   0  0  0  0  0  0
   -0.3397    0.2821   -0.8701 H   0  0  0  0  0  0
    0.8434   -0.6093    2.3919 H   0  0  0  0  0  0
    2.8218    1.1519    0.2390 H   0  0  0  0  0  0
    0.8316   -2.6646   -0.7661 H   0  0  0  0  0  0
   -1.2757   -1.7134   -3.0008 H   0  0  0  0  0  0
   -0.8911   -3.1361   -2.0677 H   0  0  0  0  0  0
   -1.1142   -3.2611   -3.8129 H   0  0  0  0  0  0
    3.8043   -2.0330   -0.3556 H   0  0  0  0  0  0
    3.7754   -0.3241   -0.5169 H   0  0  0  0  0  0
    6.2264   -1.4834    0.7224 H   0  0  0  0  0  0
    6.2357   -0.5440    2.2080 H   0  0  0  0  0  0
    5.8394    0.2254    0.6827 H   0  0  0  0  0  0
    4.7897   -2.1497    3.2482 H   0  0  0  0  0  0
    3.0857   -1.9691    3.0338 H   0  0  0  0  0  0
    3.6560   -4.2744    2.7352 H   0  0  0  0  0  0
    3.0210   -3.6427    1.2567 H   0  0  0  0  0  0
    5.4104   -3.4687    0.3692 H   0  0  0  0  0  0
    5.9741   -4.1541    1.8682 H   0  0  0  0  0  0
    5.8692   -5.8473    0.1188 H   0  0  0  0  0  0
    4.7218   -6.2612    1.3655 H   0  0  0  0  0  0
    2.8436   -5.5147    0.0103 H   0  0  0  0  0  0
    3.9010   -4.7127   -1.1307 H   0  0  0  0  0  0
    4.7609   -6.8694   -1.9330 H   0  0  0  0  0  0
    3.8908   -7.7264   -0.6912 H   0  0  0  0  0  0
    2.7673   -7.9570   -2.8314 H   0  0  0  0  0  0
    1.7249   -7.1755   -1.6992 H   0  0  0  0  0  0
    3.4320   -5.5821   -3.6682 H   0  0  0  0  0  0
    1.9360   -6.3033   -4.2000 H   0  0  0  0  0  0
    2.4672   -4.1141   -5.4322 H   0  0  0  0  0  0
    3.6246   -3.4161   -4.2851 H   0  0  0  0  0  0
    2.5245   -2.3858   -5.1620 H   0  0  0  0  0  0
   -0.3539    2.3131    0.4233 H   0  0  0  0  0  0
   -0.9239    1.4891    1.7192 H   0  0  0  0  0  0
  1  9  1  0  0  0
  1  2  2  0  0  0
  1 40  1  0  0  0
  2  3  1  0  0  0
  2 41  1  0  0  0
  3  4  2  0  0  0
  3 42  1  0  0  0
  4  5  1  0  0  0
  4  8  1  0  0  0
  5  6  1  0  0  0
  5  7  1  0  0  0
  5 43  1  0  0  0
  6 44  1  0  0  0
  6 45  1  0  0  0
  6 46  1  0  0  0
  7 47  1  0  0  0
  7 48  1  0  0  0
  7 49  1  0  0  0
  8  9  2  0  0  0
  8 50  1  0  0  0
  9 10  1  0  0  0
 10 11  1  0  0  0
 10 51  1  0  0  0
 10 52  1  0  0  0
 11 12  1  0  0  0
 11 85  1  0  0  0
 11 86  1  0  0  0
 12 13  1  0  0  0
 12 53  1  0  0  0
 12 54  1  0  0  0
 13 14  1  0  0  0
 13 15  1  0  0  0
 13 16  1  0  0  0
 14 55  1  0  0  0
 15 56  1  0  0  0
 16 37  1  0  0  0
 16 17  1  0  0  0
 16 22  1  0  0  0
 17 18  1  0  0  0
 17 57  1  0  0  0
 18 19  2  0  0  0
 18 20  1  0  0  0
 20 38  1  0  0  0
 20 35  1  0  0  0
 20 21  1  0  0  0
 21 58  1  0  0  0
 21 59  1  0  0  0
 21 60  1  0  0  0
 22 23  1  0  0  0
 22 61  1  0  0  0
 22 62  1  0  0  0
 23 39  1  0  0  0
 23 24  1  0  0  0
 23 25  1  0  0  0
 24 63  1  0  0  0
 24 64  1  0  0  0
 24 65  1  0  0  0
 25 26  1  0  0  0
 25 66  1  0  0  0
 25 67  1  0  0  0
 26 27  1  0  0  0
 26 68  1  0  0  0
 26 69  1  0  0  0
 27 28  1  0  0  0
 27 70  1  0  0  0
 27 71  1  0  0  0
 28 29  1  0  0  0
 28 72  1  0  0  0
 28 73  1  0  0  0
 29 30  1  0  0  0
 29 74  1  0  0  0
 29 75  1  0  0  0
 30 31  1  0  0  0
 30 76  1  0  0  0
 30 77  1  0  0  0
 31 32  1  0  0  0
 31 78  1  0  0  0
 31 79  1  0  0  0
 32 33  1  0  0  0
 32 80  1  0  0  0
 32 81  1  0  0  0
 33 34  2  0  0  0
 33 35  1  0  0  0
 35 36  1  0  0  0
 36 82  1  0  0  0
 36 83  1  0  0  0
 36 84  1  0  0  0
M  CHG  1  11   1
M  END
> <i_f3d_flags>
0

> <chiral flag>
1

> <version>
0

> <s_i_glide_gridfile>
base1a_gride_6

> <i_i_glide_lignum>
4

> <i_i_glide_rotatable_bonds>
8

> <r_i_docking_score>
-5.33336189114226

> <r_i_glide_ligand_efficiency>
-0.148148941420618

> <r_i_glide_ligand_efficiency_sa>
-0.489177025987308

> <r_i_glide_ligand_efficiency_ln>
-1.16359547386068

> <r_glide_XP_GScore>
-5.34776189114226

> <r_i_glide_gscore>
-5.34776189114226

> <r_i_glide_evdw>
-21.7410373687744

> <r_i_glide_ecoul>
-20.6442222595215

> <r_i_glide_energy>
-42.3852596282959

> <r_i_glide_einternal>
4.9187970161438

> <r_i_glide_emodel>
-48.7669956391327

> <r_glide_XP_HBond>
-1.44759807896281

> <i_i_glide_confnum>
1

> <i_i_glide_posenum>
18

> <r_i_glide_eff_state_penalty>
0.0144

> <i_glide_XP_PoseRank>
1

> <s_m_source_file>
glide-dock_pose_2-0002_raw.maegz

> <i_m_source_file_index>
2

> <i_lp_mmshare_version>
42013

> <s_epik_input>
W0NIM11bQ0hdKFtDSDNdKWMxW2NIXVtjSF1bY0hdYyhbY0hdMSlbQ0gyXVtOSF1bQ0gyXUMoW09IXSkoW09IXSlbQ0BIXTJbTkhdQyg9TylbQ0BIXShbQ0gzXSlOKFtDSDNdKUMoPU8pW0NIMl1bQ0gyXVtDSDJdW0NIMl1bQ0gyXVtDSDJdW0NIMl1bQ0gyXVtDQEhdKFtDSDJdMilbQ0gzXQ==

> <s_epik_cmdline>
J2VwaWtfcHl0aG9uJywgJy1waCcsICc3LjAnLCAnLXRuJywgJzgnLCAnLW1hJywgJzIwMCcsICctaW1hZScsICc8aW5maWxlLm1hZT4nLCAnLW9tYWUnLCAnPG91dGZpbGUubWFlPic=

> <r_epik_Ionization_Penalty>
0.0181791

> <r_epik_Ionization_Penalty_Charging>
0.0181594

> <r_epik_Ionization_Penalty_Neutral>
1.97672e-05

> <r_epik_State_Penalty>
0.0144341

> <r_epik_Charging_Adjusted_Penalty>
0.0325934

> <i_epik_Tot_Q>
1

> <i_epik_Tot_abs_Q>
1

> <i_f3d_flags>
0

> <s_lp_Force_Field>
OPLS_2005

> <r_lp_Energy>
32.9582

> <b_lp_Chiralities_Consistent>
1

> <s_lp_Variant>
BACE_3.smi:1-1

$$$$
BACE_3.smi:1
                    3D
 Structure written by MMmdl.
 85 86  0  0  1  0            999 V2000
   -1.3711    3.4376   -1.5355 C   0  0  0  0  0  0
   -1.6482    3.5838   -2.9076 C   0  0  0  0  0  0
   -2.6352    2.7859   -3.5171 C   0  0  0  0  0  0
   -3.3499    1.8328   -2.7585 C   0  0  0  0  0  0
   -4.4291    0.9736   -3.4065 C   0  0  0  0  0  0
   -5.6441    1.8197   -3.8171 C   0  0  0  0  0  0
   -3.8861    0.1535   -4.5884 C   0  0  0  0  0  0
   -3.0655    1.6901   -1.3828 C   0  0  0  0  0  0
   -2.0777    2.4879   -0.7680 C   0  0  0  0  0  0
   -1.7760    2.3170    0.7118 C   0  0  0  0  0  0
   -0.3643    2.0551    0.9848 N   0  0  0  0  0  0
    0.0988    0.7502    0.5087 C   0  0  0  0  0  0
    1.5922    0.4883    0.8316 C   0  0  0  0  0  0
    1.7016    0.5129    2.2427 O   0  0  0  0  0  0
    2.3713    1.4973    0.2193 O   0  0  0  0  0  0
    2.0928   -0.9228    0.3651 C   0  0  1  0  0  0
    1.3656   -1.4530   -0.7910 N   0  0  0  0  0  0
    1.4761   -1.0702   -2.0749 C   0  0  0  0  0  0
    2.2231   -0.1700   -2.4561 O   0  0  0  0  0  0
    0.6072   -1.8276   -3.0880 C   0  0  2  0  0  0
   -0.8934   -1.8961   -2.7183 C   0  0  0  0  0  0
    3.6271   -1.1109    0.1943 C   0  0  0  0  0  0
    4.4600   -1.1447    1.4977 C   0  0  2  0  0  0
    5.9675   -1.0584    1.1970 C   0  0  0  0  0  0
    4.1204   -2.3143    2.4637 C   0  0  0  0  0  0
    3.7558   -3.6857    1.8497 C   0  0  0  0  0  0
    4.8625   -4.3750    1.0309 C   0  0  0  0  0  0
    4.4250   -5.7085    0.3988 C   0  0  0  0  0  0
    3.2568   -5.5581   -0.5927 C   0  0  0  0  0  0
    3.0602   -6.7874   -1.4922 C   0  0  0  0  0  0
    1.7836   -6.7590   -2.3591 C   0  0  0  0  0  0
    1.6915   -5.5828   -3.3626 C   0  0  0  0  0  0
    1.0615   -4.2829   -2.8081 C   0  0  0  0  0  0
    0.4249   -4.3459   -1.7562 O   0  0  0  0  0  0
    1.2212   -3.1172   -3.4939 N   0  0  0  0  0  0
    2.1180   -3.0512   -4.6564 C   0  0  0  0  0  0
    1.7685   -1.6232    1.1339 H   0  0  0  0  0  0
    0.5994   -1.1899   -3.9729 H   0  0  0  0  0  0
    4.2417   -0.2263    2.0424 H   0  0  0  0  0  0
   -0.6116    4.0523   -1.0747 H   0  0  0  0  0  0
   -1.1041    4.3103   -3.4930 H   0  0  0  0  0  0
   -2.8430    2.9125   -4.5694 H   0  0  0  0  0  0
   -4.7737    0.2587   -2.6581 H   0  0  0  0  0  0
   -6.0603    2.3487   -2.9591 H   0  0  0  0  0  0
   -6.4347    1.1946   -4.2334 H   0  0  0  0  0  0
   -5.3794    2.5631   -4.5697 H   0  0  0  0  0  0
   -3.0546   -0.4794   -4.2792 H   0  0  0  0  0  0
   -3.5351    0.7924   -5.3990 H   0  0  0  0  0  0
   -4.6586   -0.4987   -4.9968 H   0  0  0  0  0  0
   -3.6075    0.9650   -0.7934 H   0  0  0  0  0  0
   -2.0769    3.2357    1.2159 H   0  0  0  0  0  0
   -2.3946    1.5223    1.1306 H   0  0  0  0  0  0
   -0.5108   -0.0396    0.9500 H   0  0  0  0  0  0
   -0.0625    0.6953   -0.5672 H   0  0  0  0  0  0
    1.1301   -0.1502    2.5980 H   0  0  0  0  0  0
    3.2822    1.2592    0.2960 H   0  0  0  0  0  0
    0.7211   -2.2062   -0.5972 H   0  0  0  0  0  0
   -1.3063   -0.8907   -2.6255 H   0  0  0  0  0  0
   -1.0847   -2.3946   -1.7690 H   0  0  0  0  0  0
   -1.4642   -2.4115   -3.4907 H   0  0  0  0  0  0
    3.8108   -2.0304   -0.3602 H   0  0  0  0  0  0
    4.0197   -0.3289   -0.4555 H   0  0  0  0  0  0
    6.3279   -1.9021    0.6121 H   0  0  0  0  0  0
    6.5511   -1.0213    2.1172 H   0  0  0  0  0  0
    6.1993   -0.1537    0.6342 H   0  0  0  0  0  0
    4.9306   -2.4443    3.1819 H   0  0  0  0  0  0
    3.2653   -2.0031    3.0648 H   0  0  0  0  0  0
    3.4661   -4.3539    2.6614 H   0  0  0  0  0  0
    2.8614   -3.5762    1.2409 H   0  0  0  0  0  0
    5.1987   -3.7261    0.2259 H   0  0  0  0  0  0
    5.7306   -4.5442    1.6687 H   0  0  0  0  0  0
    5.2832   -6.1335   -0.1230 H   0  0  0  0  0  0
    4.1584   -6.4238    1.1775 H   0  0  0  0  0  0
    2.3361   -5.3708   -0.0403 H   0  0  0  0  0  0
    3.4310   -4.6826   -1.2188 H   0  0  0  0  0  0
    3.9325   -6.9036   -2.1365 H   0  0  0  0  0  0
    3.0286   -7.6804   -0.8670 H   0  0  0  0  0  0
    1.7574   -7.6867   -2.9317 H   0  0  0  0  0  0
    0.9014   -6.8057   -1.7196 H   0  0  0  0  0  0
    2.6883   -5.4050   -3.7639 H   0  0  0  0  0  0
    1.0728   -5.8928   -4.2056 H   0  0  0  0  0  0
    1.8153   -3.7619   -5.4263 H   0  0  0  0  0  0
    3.1448   -3.2716   -4.3613 H   0  0  0  0  0  0
    2.1406   -2.0688   -5.1281 H   0  0  0  0  0  0
   -0.1721    2.1530    1.9766 H   0  0  0  0  0  0
  1  9  1  0  0  0
  1  2  2  0  0  0
  1 40  1  0  0  0
  2  3  1  0  0  0
  2 41  1  0  0  0
  3  4  2  0  0  0
  3 42  1  0  0  0
  4  5  1  0  0  0
  4  8  1  0  0  0
  5  6  1  0  0  0
  5  7  1  0  0  0
  5 43  1  0  0  0
  6 44  1  0  0  0
  6 45  1  0  0  0
  6 46  1  0  0  0
  7 47  1  0  0  0
  7 48  1  0  0  0
  7 49  1  0  0  0
  8  9  2  0  0  0
  8 50  1  0  0  0
  9 10  1  0  0  0
 10 11  1  0  0  0
 10 51  1  0  0  0
 10 52  1  0  0  0
 11 12  1  0  0  0
 11 85  1  0  0  0
 12 13  1  0  0  0
 12 53  1  0  0  0
 12 54  1  0  0  0
 13 14  1  0  0  0
 13 15  1  0  0  0
 13 16  1  0  0  0
 14 55  1  0  0  0
 15 56  1  0  0  0
 16 37  1  0  0  0
 16 17  1  0  0  0
 16 22  1  0  0  0
 17 18  1  0  0  0
 17 57  1  0  0  0
 18 19  2  0  0  0
 18 20  1  0  0  0
 20 38  1  0  0  0
 20 35  1  0  0  0
 20 21  1  0  0  0
 21 58  1  0  0  0
 21 59  1  0  0  0
 21 60  1  0  0  0
 22 23  1  0  0  0
 22 61  1  0  0  0
 22 62  1  0  0  0
 23 39  1  0  0  0
 23 24  1  0  0  0
 23 25  1  0  0  0
 24 63  1  0  0  0
 24 64  1  0  0  0
 24 65  1  0  0  0
 25 26  1  0  0  0
 25 66  1  0  0  0
 25 67  1  0  0  0
 26 27  1  0  0  0
 26 68  1  0  0  0
 26 69  1  0  0  0
 27 28  1  0  0  0
 27 70  1  0  0  0
 27 71  1  0  0  0
 28 29  1  0  0  0
 28 72  1  0  0  0
 28 73  1  0  0  0
 29 30  1  0  0  0
 29 74  1  0  0  0
 29 75  1  0  0  0
 30 31  1  0  0  0
 30 76  1  0  0  0
 30 77  1  0  0  0
 31 32  1  0  0  0
 31 78  1  0  0  0
 31 79  1  0  0  0
 32 33  1  0  0  0
 32 80  1  0  0  0
 32 81  1  0  0  0
 33 34  2  0  0  0
 33 35  1  0  0  0
 35 36  1  0  0  0
 36 82  1  0  0  0
 36 83  1  0  0  0
 36 84  1  0  0  0
M  END
> <i_f3d_flags>
0

> <chiral flag>
1

> <version>
0

> <s_i_glide_gridfile>
base1a_gride_6

> <i_i_glide_lignum>
4

> <i_i_glide_rotatable_bonds>
8

> <r_i_docking_score>
-5.33336189114226

> <r_i_glide_ligand_efficiency>
-0.148148941420618

> <r_i_glide_ligand_efficiency_sa>
-0.489177025987308

> <r_i_glide_ligand_efficiency_ln>
-1.16359547386068

> <r_glide_XP_GScore>
-5.34776189114226

> <r_i_glide_gscore>
-5.34776189114226

> <r_i_glide_evdw>
-21.7410373687744

> <r_i_glide_ecoul>
-20.6442222595215

> <r_i_glide_energy>
-42.3852596282959

> <r_i_glide_einternal>
4.9187970161438

> <r_i_glide_emodel>
-48.7669956391327

> <r_glide_XP_HBond>
-1.44759807896281

> <i_i_glide_confnum>
1

> <i_i_glide_posenum>
18

> <r_i_glide_eff_state_penalty>
0.0144

> <i_glide_XP_PoseRank>
1

> <s_m_source_file>
glide-dock_pose_2-0002_raw.maegz

> <i_m_source_file_index>
2

> <i_lp_mmshare_version>
42013

> <s_epik_input>
W0NIM11bQ0hdKFtDSDNdKWMxW2NIXVtjSF1bY0hdYyhbY0hdMSlbQ0gyXVtOSF1bQ0gyXUMoW09IXSkoW09IXSlbQ0BIXTJbTkhdQyg9TylbQ0BIXShbQ0gzXSlOKFtDSDNdKUMoPU8pW0NIMl1bQ0gyXVtDSDJdW0NIMl1bQ0gyXVtDSDJdW0NIMl1bQ0gyXVtDQEhdKFtDSDJdMilbQ0gzXQ==

> <s_epik_cmdline>
J2VwaWtfcHl0aG9uJywgJy1waCcsICc3LjAnLCAnLXRuJywgJzgnLCAnLW1hJywgJzIwMCcsICctaW1hZScsICc8aW5maWxlLm1hZT4nLCAnLW9tYWUnLCAnPG91dGZpbGUubWFlPic=

> <r_epik_Ionization_Penalty>
2.07396

> <r_epik_Ionization_Penalty_Charging>
0

> <r_epik_Ionization_Penalty_Neutral>
2.07396

> <r_epik_State_Penalty>
2.20813

> <r_epik_Charging_Adjusted_Penalty>
2.20813

> <i_epik_Tot_Q>
0

> <i_epik_Tot_abs_Q>
0

> <i_f3d_flags>
0

> <s_lp_Force_Field>
OPLS_2005

> <r_lp_Energy>
49.075

> <b_lp_Chiralities_Consistent>
1

> <s_lp_Variant>
BACE_3.smi:1-2

$$$$
