BACE_20.smi:1
                    3D
 Structure written by MMmdl.
 78 79  0  0  1  0            999 V2000
   -0.1307   11.0316    0.4701 C   0  0  0  0  0  0
   -0.7587   10.2095   -0.6610 C   0  0  0  0  0  0
   -0.4449    8.7120   -0.5438 C   0  0  0  0  0  0
   -1.0701    7.8930   -1.6841 C   0  0  0  0  0  0
   -0.7450    6.4753   -1.5879 N   0  0  0  0  0  0
   -1.3902    5.6409   -0.6630 C   0  0  0  0  0  0
   -0.8581    4.3570   -0.4302 C   0  0  0  0  0  0
   -1.5030    3.5063    0.4959 C   0  0  0  0  0  0
   -2.6498    3.9893    1.1617 C   0  0  0  0  0  0
   -3.1161    5.2931    0.8638 C   0  0  0  0  0  0
   -2.4972    6.0929   -0.0303 N   0  0  0  0  0  0
   -4.2242    5.8766    1.4379 O   0  0  0  0  0  0
   -4.9534    5.1188    2.3918 C   0  0  0  0  0  0
   -0.9734    2.1345    0.7991 C   0  0  0  0  0  0
   -1.1650    1.6112    1.8969 O   0  0  0  0  0  0
   -0.3534    1.5219   -0.2232 N   0  0  0  0  0  0
    0.1507    0.1460   -0.2359 C   0  0  1  0  0  0
   -0.5432   -0.6855   -1.3393 C   0  0  0  0  0  0
   -2.0597   -0.5771   -1.3082 C   0  0  0  0  0  0
   -2.7966   -1.2511   -0.3115 C   0  0  0  0  0  0
   -4.1990   -1.1288   -0.2640 C   0  0  0  0  0  0
   -4.8700   -0.3331   -1.2126 C   0  0  0  0  0  0
   -4.1382    0.3389   -2.2105 C   0  0  0  0  0  0
   -2.7362    0.2168   -2.2590 C   0  0  0  0  0  0
    1.6962    0.1073   -0.3111 C   0  0  2  0  0  0
    2.3909    0.8631    0.8476 C   0  0  0  0  0  0
    3.9312    0.7238    0.9031 C   0  0  1  0  0  0
    4.5185    1.6005    2.0227 C   0  0  0  0  0  0
    4.3742   -0.7353    1.0906 C   0  0  0  0  0  0
    4.0445   -1.3603    2.0990 O   0  0  0  0  0  0
    5.1149   -1.2665    0.1071 N   0  0  0  0  0  0
    5.6213   -2.6315    0.1006 C   0  0  0  0  0  0
    6.3620   -2.9251   -1.2133 C   0  0  0  0  0  0
    6.8833   -4.3677   -1.3194 C   0  0  0  0  0  0
    8.0401   -4.6804   -0.3608 C   0  0  0  0  0  0
    2.1362    0.6313   -1.5502 O   0  0  0  0  0  0
   -0.1210   -0.3289    0.7084 H   0  0  0  0  0  0
    1.9933   -0.9413   -0.2848 H   0  0  0  0  0  0
    4.3422    1.0880   -0.0400 H   0  0  0  0  0  0
   -0.3692   12.0895    0.3599 H   0  0  0  0  0  0
    0.9552   10.9338    0.4721 H   0  0  0  0  0  0
   -0.4989   10.7072    1.4438 H   0  0  0  0  0  0
   -1.8392   10.3573   -0.6558 H   0  0  0  0  0  0
   -0.4003   10.5850   -1.6200 H   0  0  0  0  0  0
    0.6362    8.5670   -0.5432 H   0  0  0  0  0  0
   -0.8056    8.3445    0.4177 H   0  0  0  0  0  0
   -2.1515    8.0314   -1.7098 H   0  0  0  0  0  0
   -0.6947    8.2558   -2.6411 H   0  0  0  0  0  0
    0.0985    6.1495   -2.0369 H   0  0  0  0  0  0
    0.0332    4.0397   -0.9526 H   0  0  0  0  0  0
   -3.1534    3.3587    1.8792 H   0  0  0  0  0  0
   -5.7973    5.7078    2.7510 H   0  0  0  0  0  0
   -4.3364    4.8654    3.2551 H   0  0  0  0  0  0
   -5.3528    4.2037    1.9521 H   0  0  0  0  0  0
   -0.2718    2.0364   -1.0880 H   0  0  0  0  0  0
   -0.1949   -0.3714   -2.3238 H   0  0  0  0  0  0
   -0.2646   -1.7355   -1.2429 H   0  0  0  0  0  0
   -2.2871   -1.8556    0.4245 H   0  0  0  0  0  0
   -4.7600   -1.6429    0.5026 H   0  0  0  0  0  0
   -5.9451   -0.2369   -1.1747 H   0  0  0  0  0  0
   -4.6519    0.9503   -2.9376 H   0  0  0  0  0  0
   -2.1817    0.7426   -3.0224 H   0  0  0  0  0  0
    2.1422    1.9234    0.7852 H   0  0  0  0  0  0
    1.9691    0.5215    1.7942 H   0  0  0  0  0  0
    5.6034    1.5013    2.0784 H   0  0  0  0  0  0
    4.1085    1.3346    2.9980 H   0  0  0  0  0  0
    4.2975    2.6540    1.8495 H   0  0  0  0  0  0
    5.3392   -0.6881   -0.6896 H   0  0  0  0  0  0
    6.2873   -2.7642    0.9538 H   0  0  0  0  0  0
    4.7905   -3.3279    0.2258 H   0  0  0  0  0  0
    5.6835   -2.7411   -2.0475 H   0  0  0  0  0  0
    7.1907   -2.2268   -1.3380 H   0  0  0  0  0  0
    6.0661   -5.0701   -1.1523 H   0  0  0  0  0  0
    7.2257   -4.5404   -2.3402 H   0  0  0  0  0  0
    8.4101   -5.6931   -0.5214 H   0  0  0  0  0  0
    7.7298   -4.6070    0.6814 H   0  0  0  0  0  0
    8.8741   -3.9950   -0.5131 H   0  0  0  0  0  0
    1.8946    1.5438   -1.5925 H   0  0  0  0  0  0
  1  2  1  0  0  0
  1 40  1  0  0  0
  1 41  1  0  0  0
  1 42  1  0  0  0
  2  3  1  0  0  0
  2 43  1  0  0  0
  2 44  1  0  0  0
  3  4  1  0  0  0
  3 45  1  0  0  0
  3 46  1  0  0  0
  4  5  1  0  0  0
  4 47  1  0  0  0
  4 48  1  0  0  0
  5  6  1  0  0  0
  5 49  1  0  0  0
  6 11  1  0  0  0
  6  7  2  0  0  0
  7  8  1  0  0  0
  7 50  1  0  0  0
  8  9  2  0  0  0
  8 14  1  0  0  0
  9 10  1  0  0  0
  9 51  1  0  0  0
 10 11  2  0  0  0
 10 12  1  0  0  0
 12 13  1  0  0  0
 13 52  1  0  0  0
 13 53  1  0  0  0
 13 54  1  0  0  0
 14 15  2  0  0  0
 14 16  1  0  0  0
 16 17  1  0  0  0
 16 55  1  0  0  0
 17 37  1  0  0  0
 17 18  1  0  0  0
 17 25  1  0  0  0
 18 19  1  0  0  0
 18 56  1  0  0  0
 18 57  1  0  0  0
 19 24  1  0  0  0
 19 20  2  0  0  0
 20 21  1  0  0  0
 20 58  1  0  0  0
 21 22  2  0  0  0
 21 59  1  0  0  0
 22 23  1  0  0  0
 22 60  1  0  0  0
 23 24  2  0  0  0
 23 61  1  0  0  0
 24 62  1  0  0  0
 25 38  1  0  0  0
 25 26  1  0  0  0
 25 36  1  0  0  0
 26 27  1  0  0  0
 26 63  1  0  0  0
 26 64  1  0  0  0
 27 39  1  0  0  0
 27 28  1  0  0  0
 27 29  1  0  0  0
 28 65  1  0  0  0
 28 66  1  0  0  0
 28 67  1  0  0  0
 29 30  2  0  0  0
 29 31  1  0  0  0
 31 32  1  0  0  0
 31 68  1  0  0  0
 32 33  1  0  0  0
 32 69  1  0  0  0
 32 70  1  0  0  0
 33 34  1  0  0  0
 33 71  1  0  0  0
 33 72  1  0  0  0
 34 35  1  0  0  0
 34 73  1  0  0  0
 34 74  1  0  0  0
 35 75  1  0  0  0
 35 76  1  0  0  0
 35 77  1  0  0  0
 36 78  1  0  0  0
M  END
> <i_f3d_flags>
0

> <chiral flag>
1

> <version>
0

> <s_i_glide_gridfile>
base1a_gride_6

> <i_i_glide_lignum>
37

> <i_i_glide_rotatable_bonds>
19

> <r_i_docking_score>
-4.01765422778579

> <r_i_glide_ligand_efficiency>
-0.111601506327383

> <r_i_glide_ligand_efficiency_sa>
-0.368500054319896

> <r_i_glide_ligand_efficiency_ln>
-0.876543608029483

> <r_glide_XP_GScore>
-4.01765422778579

> <r_i_glide_gscore>
-4.01765422778579

> <r_i_glide_evdw>
-36.4578514099121

> <r_i_glide_ecoul>
-7.73248720169067

> <r_i_glide_energy>
-44.1903386116028

> <r_i_glide_einternal>
8.38038158416748

> <r_i_glide_emodel>
-55.6981186106256

> <r_glide_XP_HBond>
-1.79858793129877

> <i_i_glide_confnum>
1

> <i_i_glide_posenum>
5

> <r_i_glide_eff_state_penalty>
-0

> <i_glide_XP_PoseRank>
1

> <s_m_source_file>
glide-dock_pose_2-0020_raw.maegz

> <i_m_source_file_index>
1

> <i_lp_mmshare_version>
42013

> <s_epik_input>
W0NIM11bQ0gyXVtDSDJdW0NIMl1bTkhdYzFbY0hdYyhbY0hdYyhuMSlPW0NIM10pQyg9TylbTkhdW0NAQEhdKFtDSDJdYzJbY0hdW2NIXVtjSF1bY0hdW2NIXTIpW0NAQEhdKFtPSF0pW0NIMl1bQ0BASF0oW0NIM10pQyg9TylbTkhdW0NIMl1bQ0gyXVtDSDJdW0NIM10=

> <s_epik_cmdline>
J2VwaWtfcHl0aG9uJywgJy1waCcsICc3LjAnLCAnLXRuJywgJzgnLCAnLW1hJywgJzIwMCcsICctaW1hZScsICc8aW5maWxlLm1hZT4nLCAnLW9tYWUnLCAnPG91dGZpbGUubWFlPic=

> <r_lp_tautomer_probability>
1

> <r_epik_Ionization_Penalty>
3.11081e-05

> <r_epik_Ionization_Penalty_Charging>
0

> <r_epik_Ionization_Penalty_Neutral>
3.11081e-05

> <r_epik_State_Penalty>
-0

> <r_epik_Charging_Adjusted_Penalty>
0

> <i_epik_Tot_Q>
0

> <i_epik_Tot_abs_Q>
0

> <i_f3d_flags>
0

> <s_lp_Force_Field>
OPLS_2005

> <r_lp_Energy>
20.6133

> <b_lp_Chiralities_Consistent>
1

> <s_lp_Variant>
BACE_20.smi:1-1

$$$$
