BACE_7.smi:1
 OpenBabel10031817133D
Structure written by MMmdl.
 99103  0  0  1  0  0  0  0  0999 V2000
   17.9175   38.2125   -7.0058 C   0  0  0  0  0  0  0  0  0  0  0  0
   18.0632   38.7078   -8.4544 C   0  0  2  0  0  0  0  0  0  0  0  0
   17.1166   37.9559   -9.4187 C   0  0  0  0  0  0  0  0  0  0  0  0
   15.6726   38.4913   -9.3849 C   0  0  0  0  0  0  0  0  0  0  0  0
   15.4986   39.8504  -10.0989 C   0  0  0  0  0  0  0  0  0  0  0  0
   14.3170   40.6549   -9.5364 C   0  0  0  0  0  0  0  0  0  0  0  0
   14.0785   42.0257  -10.1952 C   0  0  0  0  0  0  0  0  0  0  0  0
   15.2319   42.9411  -10.0453 N   0  0  0  0  0  0  0  0  0  0  0  0
   15.3040   43.7443   -8.9541 C   0  0  0  0  0  0  0  0  0  0  0  0
   14.3100   44.2640   -8.4386 O   0  0  0  0  0  0  0  0  0  0  0  0
   16.6643   43.9840   -8.3605 C   0  0  0  0  0  0  0  0  0  0  0  0
   17.0368   45.2813   -7.9590 C   0  0  0  0  0  0  0  0  0  0  0  0
   18.2907   45.5058   -7.3520 C   0  0  0  0  0  0  0  0  0  0  0  0
   19.1952   44.4376   -7.1861 C   0  0  0  0  0  0  0  0  0  0  0  0
   18.8495   43.1378   -7.5996 C   0  0  0  0  0  0  0  0  0  0  0  0
   17.5601   42.9118   -8.1409 C   0  0  0  0  0  0  0  0  0  0  0  0
   19.8330   42.0134   -7.4184 C   0  0  0  0  0  0  0  0  0  0  0  0
   20.6567   42.0265   -6.5054 O   0  0  0  0  0  0  0  0  0  0  0  0
   19.7833   41.0536   -8.3526 N   0  0  0  0  0  0  0  0  0  0  0  0
   20.4606   39.7548   -8.2966 C   0  0  1  0  0  0  0  0  0  0  0  0
   19.5352   38.6950   -8.9495 C   0  0  0  0  0  0  0  0  0  0  0  0
   21.8779   39.7712   -8.9578 C   0  0  1  0  0  0  0  0  0  0  0  0
   22.1520   40.9286   -9.9534 C   0  0  0  0  0  0  0  0  0  0  0  0
   23.5513   40.9485  -10.4391 N   0  3  0  0  0  0  0  0  0  0  0  0
   24.4439   41.8820   -9.7196 C   0  0  0  0  0  0  0  0  0  0  0  0
   25.5494   42.3761  -10.6293 C   0  0  0  0  0  0  0  0  0  0  0  0
   26.7427   41.6412  -10.7658 C   0  0  0  0  0  0  0  0  0  0  0  0
   27.7751   42.1232  -11.5924 C   0  0  0  0  0  0  0  0  0  0  0  0
   27.6200   43.3418  -12.2821 C   0  0  0  0  0  0  0  0  0  0  0  0
   26.4230   44.0864  -12.1602 C   0  0  0  0  0  0  0  0  0  0  0  0
   25.3896   43.5863  -11.3375 C   0  0  0  0  0  0  0  0  0  0  0  0
   26.2063   45.4235  -12.8732 C   0  0  0  0  0  0  0  0  0  0  0  0
   27.2325   45.7405  -13.9752 C   0  0  0  0  0  0  0  0  0  0  0  0
   26.1329   46.5814  -11.8636 C   0  0  0  0  0  0  0  0  0  0  0  0
   22.8604   39.7519   -7.9430 O   0  0  0  0  0  0  0  0  0  0  0  0
   18.6717   46.8383   -6.9134 C   0  0  0  0  0  0  0  0  0  0  0  0
   19.6494   47.1807   -6.0768 N   0  0  0  0  0  0  0  0  0  0  0  0
   19.6192   48.5638   -6.0344 C   0  0  0  0  0  0  0  0  0  0  0  0
   18.5970   48.9895   -6.8407 C   0  0  0  0  0  0  0  0  0  0  0  0
   17.9771   47.9055   -7.3958 O   0  0  0  0  0  0  0  0  0  0  0  0
   15.9150   43.3107  -11.3074 C   0  0  2  0  0  0  0  0  0  0  0  0
   17.4529   43.1609  -11.2863 C   0  0  0  0  0  0  0  0  0  0  0  0
   15.4028   44.6369  -11.9001 C   0  0  0  0  0  0  0  0  0  0  0  0
   16.2746   45.7120  -12.1998 C   0  0  0  0  0  0  0  0  0  0  0  0
   15.7808   46.8917  -12.7950 C   0  0  0  0  0  0  0  0  0  0  0  0
   14.4127   47.0133  -13.0989 C   0  0  0  0  0  0  0  0  0  0  0  0
   13.5310   45.9634  -12.7824 C   0  0  0  0  0  0  0  0  0  0  0  0
   14.0237   44.7879  -12.1830 C   0  0  0  0  0  0  0  0  0  0  0  0
   17.7198   39.7357   -8.4418 H   0  0  0  0  0  0  0  0  0  0  0  0
   20.5653   39.4728   -7.2455 H   0  0  0  0  0  0  0  0  0  0  0  0
   22.0148   38.8290   -9.4923 H   0  0  0  0  0  0  0  0  0  0  0  0
   15.6280   42.5627  -12.0372 H   0  0  0  0  0  0  0  0  0  0  0  0
   18.0603   37.1354   -6.9296 H   0  0  0  0  0  0  0  0  0  0  0  0
   16.9219   38.4368   -6.6215 H   0  0  0  0  0  0  0  0  0  0  0  0
   18.6224   38.6996   -6.3325 H   0  0  0  0  0  0  0  0  0  0  0  0
   17.4824   38.0275  -10.4421 H   0  0  0  0  0  0  0  0  0  0  0  0
   17.1244   36.8923   -9.1778 H   0  0  0  0  0  0  0  0  0  0  0  0
   15.0044   37.7641   -9.8471 H   0  0  0  0  0  0  0  0  0  0  0  0
   15.3479   38.5611   -8.3454 H   0  0  0  0  0  0  0  0  0  0  0  0
   16.4009   40.4490  -10.0019 H   0  0  0  0  0  0  0  0  0  0  0  0
   15.3700   39.6866  -11.1702 H   0  0  0  0  0  0  0  0  0  0  0  0
   13.4082   40.0603   -9.6421 H   0  0  0  0  0  0  0  0  0  0  0  0
   14.4601   40.7983   -8.4641 H   0  0  0  0  0  0  0  0  0  0  0  0
   13.8131   41.8642  -11.2396 H   0  0  0  0  0  0  0  0  0  0  0  0
   13.1809   42.4643   -9.7539 H   0  0  0  0  0  0  0  0  0  0  0  0
   16.3486   46.1017   -8.1008 H   0  0  0  0  0  0  0  0  0  0  0  0
   20.1618   44.6186   -6.7352 H   0  0  0  0  0  0  0  0  0  0  0  0
   17.2526   41.9117   -8.4034 H   0  0  0  0  0  0  0  0  0  0  0  0
   19.0837   41.1623   -9.0712 H   0  0  0  0  0  0  0  0  0  0  0  0
   19.9557   37.6981   -8.8066 H   0  0  0  0  0  0  0  0  0  0  0  0
   19.5425   38.8705  -10.0271 H   0  0  0  0  0  0  0  0  0  0  0  0
   21.4964   40.8036  -10.8161 H   0  0  0  0  0  0  0  0  0  0  0  0
   21.9046   41.8992   -9.5250 H   0  0  0  0  0  0  0  0  0  0  0  0
   23.9437   40.0186  -10.3867 H   0  0  0  0  0  0  0  0  0  0  0  0
   23.8980   42.7538   -9.3576 H   0  0  0  0  0  0  0  0  0  0  0  0
   24.8603   41.3896   -8.8413 H   0  0  0  0  0  0  0  0  0  0  0  0
   26.8675   40.7072  -10.2370 H   0  0  0  0  0  0  0  0  0  0  0  0
   28.6894   41.5606  -11.6954 H   0  0  0  0  0  0  0  0  0  0  0  0
   28.4401   43.6836  -12.8977 H   0  0  0  0  0  0  0  0  0  0  0  0
   24.4726   44.1497  -11.2342 H   0  0  0  0  0  0  0  0  0  0  0  0
   25.2346   45.3499  -13.3612 H   0  0  0  0  0  0  0  0  0  0  0  0
   27.2662   44.9515  -14.7252 H   0  0  0  0  0  0  0  0  0  0  0  0
   28.2359   45.8708  -13.5681 H   0  0  0  0  0  0  0  0  0  0  0  0
   26.9724   46.6655  -14.4888 H   0  0  0  0  0  0  0  0  0  0  0  0
   25.3308   46.4350  -11.1393 H   0  0  0  0  0  0  0  0  0  0  0  0
   25.9443   47.5314  -12.3662 H   0  0  0  0  0  0  0  0  0  0  0  0
   27.0672   46.6799  -11.3073 H   0  0  0  0  0  0  0  0  0  0  0  0
   23.4742   39.0525   -8.1285 H   0  0  0  0  0  0  0  0  0  0  0  0
   20.3157   49.1324   -5.4391 H   0  0  0  0  0  0  0  0  0  0  0  0
   18.2092   49.9614   -7.1061 H   0  0  0  0  0  0  0  0  0  0  0  0
   17.8621   43.2386  -12.2942 H   0  0  0  0  0  0  0  0  0  0  0  0
   17.7473   42.1850  -10.8990 H   0  0  0  0  0  0  0  0  0  0  0  0
   17.9489   43.9221  -10.6836 H   0  0  0  0  0  0  0  0  0  0  0  0
   17.3307   45.6529  -11.9928 H   0  0  0  0  0  0  0  0  0  0  0  0
   16.4598   47.6977  -13.0315 H   0  0  0  0  0  0  0  0  0  0  0  0
   14.0416   47.9084  -13.5775 H   0  0  0  0  0  0  0  0  0  0  0  0
   12.4785   46.0524  -13.0178 H   0  0  0  0  0  0  0  0  0  0  0  0
   13.3310   43.9899  -11.9694 H   0  0  0  0  0  0  0  0  0  0  0  0
   23.5553   41.2199  -11.4186 H   0  0  0  0  0  0  0  0  0  0  0  0
  1  2  1  0  0  0  0
  1 53  1  0  0  0  0
  1 54  1  0  0  0  0
  1 55  1  0  0  0  0
  2 49  1  6  0  0  0
  2 21  1  0  0  0  0
  2  3  1  0  0  0  0
  3  4  1  0  0  0  0
  3 56  1  0  0  0  0
  3 57  1  0  0  0  0
  4  5  1  0  0  0  0
  4 58  1  0  0  0  0
  4 59  1  0  0  0  0
  5  6  1  0  0  0  0
  5 60  1  0  0  0  0
  5 61  1  0  0  0  0
  6  7  1  0  0  0  0
  6 62  1  0  0  0  0
  6 63  1  0  0  0  0
  7  8  1  0  0  0  0
  7 64  1  0  0  0  0
  7 65  1  0  0  0  0
  8  9  1  0  0  0  0
  8 41  1  0  0  0  0
  9 10  2  0  0  0  0
  9 11  1  0  0  0  0
 11 16  1  0  0  0  0
 11 12  2  0  0  0  0
 12 13  1  0  0  0  0
 12 66  1  0  0  0  0
 13 14  2  0  0  0  0
 13 36  1  0  0  0  0
 14 15  1  0  0  0  0
 14 67  1  0  0  0  0
 15 16  2  0  0  0  0
 15 17  1  0  0  0  0
 16 68  1  0  0  0  0
 17 18  2  0  0  0  0
 17 19  1  0  0  0  0
 19 20  1  0  0  0  0
 19 69  1  0  0  0  0
 20 50  1  1  0  0  0
 20 21  1  0  0  0  0
 20 22  1  0  0  0  0
 21 70  1  0  0  0  0
 21 71  1  0  0  0  0
 22 51  1  6  0  0  0
 22 23  1  0  0  0  0
 22 35  1  0  0  0  0
 23 24  1  0  0  0  0
 23 72  1  0  0  0  0
 23 73  1  0  0  0  0
 24 25  1  0  0  0  0
 24 74  1  0  0  0  0
 24 99  1  0  0  0  0
 25 26  1  0  0  0  0
 25 75  1  0  0  0  0
 25 76  1  0  0  0  0
 26 31  1  0  0  0  0
 26 27  2  0  0  0  0
 27 28  1  0  0  0  0
 27 77  1  0  0  0  0
 28 29  2  0  0  0  0
 28 78  1  0  0  0  0
 29 30  1  0  0  0  0
 29 79  1  0  0  0  0
 30 31  2  0  0  0  0
 30 32  1  0  0  0  0
 31 80  1  0  0  0  0
 32 33  1  0  0  0  0
 32 34  1  0  0  0  0
 32 81  1  0  0  0  0
 33 82  1  0  0  0  0
 33 83  1  0  0  0  0
 33 84  1  0  0  0  0
 34 85  1  0  0  0  0
 34 86  1  0  0  0  0
 34 87  1  0  0  0  0
 35 88  1  0  0  0  0
 36 40  1  0  0  0  0
 36 37  2  0  0  0  0
 37 38  1  0  0  0  0
 38 39  2  0  0  0  0
 38 89  1  0  0  0  0
 39 40  1  0  0  0  0
 39 90  1  0  0  0  0
 41 52  1  6  0  0  0
 41 42  1  0  0  0  0
 41 43  1  0  0  0  0
 42 91  1  0  0  0  0
 42 92  1  0  0  0  0
 42 93  1  0  0  0  0
 43 48  1  0  0  0  0
 43 44  2  0  0  0  0
 44 45  1  0  0  0  0
 44 94  1  0  0  0  0
 45 46  2  0  0  0  0
 45 95  1  0  0  0  0
 46 47  1  0  0  0  0
 46 96  1  0  0  0  0
 47 48  2  0  0  0  0
 47 97  1  0  0  0  0
 48 98  1  0  0  0  0
M  CHG  1  24   1
M  END
>  <s_m_source_file>
BACE_7.smi

>  <i_m_source_file_index>
1

>  <i_lp_mmshare_version>
42013

>  <i_f3d_flags>
0

>  <s_epik_input>
W2NIXTFbY0hdW2NIXVtjSF1bY0hdYzFbQ0BASF0oW0NIM10pTihDMj1PKVtDSDJdW0NIMl1bQ0gyXVtDSDJdW0NIMl1bQ0BASF0oW0NIM10pW0NIMl1bQ0BIXShbTkhdQyg9TyljKFtjSF0zKVtjSF1jKFtjSF1jMjMpLWM0bltjSF1bY0hdbzQpW0NASF0oW09IXSlbQ0gyXVtOSF1bQ0gyXWM1W2NIXVtjSF1bY0hdYyhbY0hdNSlbQ0hdKFtDSDNdKVtDSDNd

>  <s_epik_cmdline>
J2VwaWtfcHl0aG9uJywgJy1waCcsICc3LjAnLCAnLXRuJywgJzgnLCAnLW1hJywgJzIwMCcsICctaW1hZScsICc8aW5maWxlLm1hZT4nLCAnLW9tYWUnLCAnPG91dGZpbGUubWFlPic=

>  <r_epik_Ionization_Penalty>
0.0165

>  <r_epik_Ionization_Penalty_Charging>
0.0165

>  <r_epik_Ionization_Penalty_Neutral>
0

>  <r_epik_State_Penalty>
0.013

>  <r_epik_Charging_Adjusted_Penalty>
0.0295552

>  <i_epik_Tot_Q>
1

>  <i_epik_Tot_abs_Q>
1

>  <s_lp_Force_Field>
OPLS_2005

>  <r_lp_Energy>
54.1327

>  <b_lp_Chiralities_Consistent>
1

>  <s_lp_Variant>
BACE_7.smi:1-1

>  <chiral flag>
1

>  <version>
0

>  <r_i_glide_lipo>
-0.655821

>  <r_i_glide_hbond>
-0.111534

>  <r_i_glide_metal>
-0

>  <r_i_glide_rewards>
0

>  <r_i_glide_erotb>
0.24809

>  <r_i_glide_esite>
-0.0271944

>  <s_i_glide_gridfile>
second_dock_grid_2

>  <i_i_glide_lignum>
14

>  <i_i_glide_rotatable_bonds>
10

>  <r_i_docking_score>
-2.36159

>  <r_i_glide_ligand_efficiency>
-0.0491999

>  <r_i_glide_ligand_efficiency_sa>
-0.178804

>  <r_i_glide_ligand_efficiency_ln>
-0.484807

>  <r_glide_XP_GScore>
-2.37459

>  <r_i_glide_gscore>
-2.37459

>  <r_i_glide_evdw>
-51.4256

>  <r_i_glide_ecoul>
-8.44784

>  <r_i_glide_energy>
-59.8734

>  <r_i_glide_einternal>
4.49598

>  <r_i_glide_emodel>
-89.0564

>  <r_glide_XP_HBond>
-0.48

>  <i_i_glide_confnum>
1

>  <i_i_glide_posenum>
7

>  <r_i_glide_eff_state_penalty>
0.013

>  <i_glide_XP_PoseRank>
6

>  <chiral flag>
1

$$$$
