BACE_9.smi:1
 OpenBabel10031817133D
Structure written by MMmdl.
 88 90  0  0  1  0  0  0  0  0999 V2000
   20.5552   42.8028   -5.7661 C   0  0  0  0  0  0  0  0  0  0  0  0
   21.9051   43.2868   -6.3268 C   0  0  2  0  0  0  0  0  0  0  0  0
   22.3195   44.6011   -5.6255 C   0  0  0  0  0  0  0  0  0  0  0  0
   23.7533   45.0557   -5.9366 C   0  0  0  0  0  0  0  0  0  0  0  0
   24.1802   46.3135   -5.1531 C   0  0  0  0  0  0  0  0  0  0  0  0
   25.5950   46.7954   -5.5178 C   0  0  0  0  0  0  0  0  0  0  0  0
   26.7308   45.8782   -5.0125 C   0  0  0  0  0  0  0  0  0  0  0  0
   28.0807   46.0785   -5.7293 C   0  0  0  0  0  0  0  0  0  0  0  0
   28.2555   45.2141   -6.9926 C   0  0  0  0  0  0  0  0  0  0  0  0
   27.3403   45.6135   -8.0487 N   0  0  0  0  0  0  0  0  0  0  0  0
   27.0284   44.6760   -9.0380 C   0  0  0  0  0  0  0  0  0  0  0  0
   27.9993   43.8055   -9.5762 C   0  0  0  0  0  0  0  0  0  0  0  0
   27.6522   42.8952  -10.5964 C   0  0  0  0  0  0  0  0  0  0  0  0
   26.3167   42.8324  -11.0473 C   0  0  0  0  0  0  0  0  0  0  0  0
   25.3288   43.6641  -10.4798 C   0  0  0  0  0  0  0  0  0  0  0  0
   25.7012   44.6112   -9.5037 C   0  0  0  0  0  0  0  0  0  0  0  0
   23.9049   43.5722  -10.9514 C   0  0  0  0  0  0  0  0  0  0  0  0
   23.6404   43.7502  -12.1367 O   0  0  0  0  0  0  0  0  0  0  0  0
   22.9327   43.2971  -10.0577 N   0  0  0  0  0  0  0  0  0  0  0  0
   23.0482   42.8490   -8.6623 C   0  0  1  0  0  0  0  0  0  0  0  0
   21.8357   43.4133   -7.8738 C   0  0  0  0  0  0  0  0  0  0  0  0
   23.1626   41.2972   -8.5923 C   0  0  1  0  0  0  0  0  0  0  0  0
   22.1089   40.5106   -9.4077 C   0  0  0  0  0  0  0  0  0  0  0  0
   22.0213   39.0969   -8.9771 N   0  3  0  0  0  0  0  0  0  0  0  0
   21.1355   38.8336   -7.8147 C   0  0  0  0  0  0  0  0  0  0  0  0
   19.6741   38.6814   -8.2203 C   0  0  0  0  0  0  0  0  0  0  0  0
   19.3387   37.8433   -9.3015 C   0  0  0  0  0  0  0  0  0  0  0  0
   17.9943   37.6223   -9.6395 C   0  0  0  0  0  0  0  0  0  0  0  0
   16.9681   38.2590   -8.9245 C   0  0  0  0  0  0  0  0  0  0  0  0
   17.2780   39.1137   -7.8470 C   0  0  0  0  0  0  0  0  0  0  0  0
   18.6372   39.3172   -7.4980 C   0  0  0  0  0  0  0  0  0  0  0  0
   16.1765   39.8139   -7.0527 C   0  0  0  0  0  0  0  0  0  0  0  0
   14.7841   39.1641   -7.1439 C   0  0  0  0  0  0  0  0  0  0  0  0
   16.0798   41.2926   -7.4326 C   0  0  0  0  0  0  0  0  0  0  0  0
   24.4587   40.9500   -9.0384 O   0  0  0  0  0  0  0  0  0  0  0  0
   28.6794   41.9518  -11.1972 C   0  0  0  0  0  0  0  0  0  0  0  0
   29.9916   42.0799  -10.6579 O   0  0  0  0  0  0  0  0  0  0  0  0
   30.7855   43.0261  -11.3510 C   0  0  0  0  0  0  0  0  0  0  0  0
   22.6396   42.5293   -6.0524 H   0  0  0  0  0  0  0  0  0  0  0  0
   23.9378   43.2704   -8.2004 H   0  0  0  0  0  0  0  0  0  0  0  0
   23.1151   40.9897   -7.5478 H   0  0  0  0  0  0  0  0  0  0  0  0
   19.7552   43.5129   -5.9832 H   0  0  0  0  0  0  0  0  0  0  0  0
   20.5925   42.6716   -4.6834 H   0  0  0  0  0  0  0  0  0  0  0  0
   20.2729   41.8412   -6.1901 H   0  0  0  0  0  0  0  0  0  0  0  0
   21.6180   45.3951   -5.8838 H   0  0  0  0  0  0  0  0  0  0  0  0
   22.2346   44.4649   -4.5456 H   0  0  0  0  0  0  0  0  0  0  0  0
   24.4321   44.2303   -5.7222 H   0  0  0  0  0  0  0  0  0  0  0  0
   23.8442   45.2641   -7.0014 H   0  0  0  0  0  0  0  0  0  0  0  0
   23.4747   47.1142   -5.3753 H   0  0  0  0  0  0  0  0  0  0  0  0
   24.1103   46.1501   -4.0762 H   0  0  0  0  0  0  0  0  0  0  0  0
   25.6402   46.9203   -6.5967 H   0  0  0  0  0  0  0  0  0  0  0  0
   25.7506   47.7953   -5.1094 H   0  0  0  0  0  0  0  0  0  0  0  0
   26.8638   46.0722   -3.9480 H   0  0  0  0  0  0  0  0  0  0  0  0
   26.4574   44.8270   -5.0798 H   0  0  0  0  0  0  0  0  0  0  0  0
   28.2427   47.1329   -5.9542 H   0  0  0  0  0  0  0  0  0  0  0  0
   28.8751   45.8031   -5.0365 H   0  0  0  0  0  0  0  0  0  0  0  0
   29.2775   45.3130   -7.3615 H   0  0  0  0  0  0  0  0  0  0  0  0
   28.1036   44.1594   -6.7477 H   0  0  0  0  0  0  0  0  0  0  0  0
   26.5825   46.2089   -7.7504 H   0  0  0  0  0  0  0  0  0  0  0  0
   29.0150   43.8497   -9.2159 H   0  0  0  0  0  0  0  0  0  0  0  0
   26.0438   42.1204  -11.8140 H   0  0  0  0  0  0  0  0  0  0  0  0
   24.9547   45.2795   -9.1001 H   0  0  0  0  0  0  0  0  0  0  0  0
   21.9992   43.3112  -10.4382 H   0  0  0  0  0  0  0  0  0  0  0  0
   20.9267   42.9375   -8.2406 H   0  0  0  0  0  0  0  0  0  0  0  0
   21.7029   44.4652   -8.1264 H   0  0  0  0  0  0  0  0  0  0  0  0
   21.1198   40.9621   -9.3263 H   0  0  0  0  0  0  0  0  0  0  0  0
   22.3668   40.5399  -10.4660 H   0  0  0  0  0  0  0  0  0  0  0  0
   21.6617   38.5564   -9.7486 H   0  0  0  0  0  0  0  0  0  0  0  0
   21.4447   37.8922   -7.3552 H   0  0  0  0  0  0  0  0  0  0  0  0
   21.2496   39.6045   -7.0519 H   0  0  0  0  0  0  0  0  0  0  0  0
   20.1121   37.3506   -9.8657 H   0  0  0  0  0  0  0  0  0  0  0  0
   17.7408   36.9507  -10.4399 H   0  0  0  0  0  0  0  0  0  0  0  0
   15.9446   38.0690   -9.2110 H   0  0  0  0  0  0  0  0  0  0  0  0
   18.8741   39.9520   -6.6570 H   0  0  0  0  0  0  0  0  0  0  0  0
   16.4610   39.7491   -6.0044 H   0  0  0  0  0  0  0  0  0  0  0  0
   14.8203   38.1202   -6.8480 H   0  0  0  0  0  0  0  0  0  0  0  0
   14.3524   39.2287   -8.1423 H   0  0  0  0  0  0  0  0  0  0  0  0
   14.0880   39.6566   -6.4626 H   0  0  0  0  0  0  0  0  0  0  0  0
   17.0119   41.8225   -7.2378 H   0  0  0  0  0  0  0  0  0  0  0  0
   15.2984   41.7633   -6.8414 H   0  0  0  0  0  0  0  0  0  0  0  0
   15.8261   41.4202   -8.4859 H   0  0  0  0  0  0  0  0  0  0  0  0
   24.5449   40.0143   -9.1691 H   0  0  0  0  0  0  0  0  0  0  0  0
   28.3277   40.9509  -10.9750 H   0  0  0  0  0  0  0  0  0  0  0  0
   28.6815   42.0384  -12.2846 H   0  0  0  0  0  0  0  0  0  0  0  0
   31.7538   43.1215  -10.8635 H   0  0  0  0  0  0  0  0  0  0  0  0
   30.3189   44.0124  -11.3684 H   0  0  0  0  0  0  0  0  0  0  0  0
   30.9601   42.7060  -12.3784 H   0  0  0  0  0  0  0  0  0  0  0  0
   22.9534   38.7612   -8.7798 H   0  0  0  0  0  0  0  0  0  0  0  0
  1  2  1  0  0  0  0
  1 42  1  0  0  0  0
  1 43  1  0  0  0  0
  1 44  1  0  0  0  0
  2 39  1  1  0  0  0
  2 21  1  0  0  0  0
  2  3  1  0  0  0  0
  3  4  1  0  0  0  0
  3 45  1  0  0  0  0
  3 46  1  0  0  0  0
  4  5  1  0  0  0  0
  4 47  1  0  0  0  0
  4 48  1  0  0  0  0
  5  6  1  0  0  0  0
  5 49  1  0  0  0  0
  5 50  1  0  0  0  0
  6  7  1  0  0  0  0
  6 51  1  0  0  0  0
  6 52  1  0  0  0  0
  7  8  1  0  0  0  0
  7 53  1  0  0  0  0
  7 54  1  0  0  0  0
  8  9  1  0  0  0  0
  8 55  1  0  0  0  0
  8 56  1  0  0  0  0
  9 10  1  0  0  0  0
  9 57  1  0  0  0  0
  9 58  1  0  0  0  0
 10 11  1  0  0  0  0
 10 59  1  0  0  0  0
 11 16  1  0  0  0  0
 11 12  2  0  0  0  0
 12 13  1  0  0  0  0
 12 60  1  0  0  0  0
 13 14  2  0  0  0  0
 13 36  1  0  0  0  0
 14 15  1  0  0  0  0
 14 61  1  0  0  0  0
 15 16  2  0  0  0  0
 15 17  1  0  0  0  0
 16 62  1  0  0  0  0
 17 18  2  0  0  0  0
 17 19  1  0  0  0  0
 19 20  1  0  0  0  0
 19 63  1  0  0  0  0
 20 40  1  1  0  0  0
 20 21  1  0  0  0  0
 20 22  1  0  0  0  0
 21 64  1  0  0  0  0
 21 65  1  0  0  0  0
 22 41  1  1  0  0  0
 22 23  1  0  0  0  0
 22 35  1  0  0  0  0
 23 24  1  0  0  0  0
 23 66  1  0  0  0  0
 23 67  1  0  0  0  0
 24 25  1  0  0  0  0
 24 68  1  0  0  0  0
 24 88  1  0  0  0  0
 25 26  1  0  0  0  0
 25 69  1  0  0  0  0
 25 70  1  0  0  0  0
 26 31  1  0  0  0  0
 26 27  2  0  0  0  0
 27 28  1  0  0  0  0
 27 71  1  0  0  0  0
 28 29  2  0  0  0  0
 28 72  1  0  0  0  0
 29 30  1  0  0  0  0
 29 73  1  0  0  0  0
 30 31  2  0  0  0  0
 30 32  1  0  0  0  0
 31 74  1  0  0  0  0
 32 33  1  0  0  0  0
 32 34  1  0  0  0  0
 32 75  1  0  0  0  0
 33 76  1  0  0  0  0
 33 77  1  0  0  0  0
 33 78  1  0  0  0  0
 34 79  1  0  0  0  0
 34 80  1  0  0  0  0
 34 81  1  0  0  0  0
 35 82  1  0  0  0  0
 36 37  1  0  0  0  0
 36 83  1  0  0  0  0
 36 84  1  0  0  0  0
 37 38  1  0  0  0  0
 38 85  1  0  0  0  0
 38 86  1  0  0  0  0
 38 87  1  0  0  0  0
M  CHG  1  24   1
M  END
>  <s_m_source_file>
BACE_9.smi

>  <i_m_source_file_index>
1

>  <i_lp_mmshare_version>
42013

>  <i_f3d_flags>
0

>  <s_epik_input>
W05IXTFbQ0gyXVtDSDJdW0NIMl1bQ0gyXVtDSDJdW0NIMl1bQ0gyXVtDQEBIXShbQ0gzXSlbQ0gyXVtDQEhdKFtOSF1DKD1PKWMoW2NIXTIpW2NIXWMoW2NIXWMxMilbQ0gyXU9bQ0gzXSlbQ0BIXShbT0hdKVtDSDJdW05IXVtDSDJdYzNbY0hdW2NIXVtjSF1jKFtjSF0zKVtDSF0oW0NIM10pW0NIM10=

>  <s_epik_cmdline>
J2VwaWtfcHl0aG9uJywgJy1waCcsICc3LjAnLCAnLXRuJywgJzgnLCAnLW1hJywgJzIwMCcsICctaW1hZScsICc8aW5maWxlLm1hZT4nLCAnLW9tYWUnLCAnPG91dGZpbGUubWFlPic=

>  <r_epik_Ionization_Penalty>
0.0171

>  <r_epik_Ionization_Penalty_Charging>
0.0165

>  <r_epik_Ionization_Penalty_Neutral>
0.0006

>  <r_epik_State_Penalty>
0.013

>  <r_epik_Charging_Adjusted_Penalty>
0.0295552

>  <i_epik_Tot_Q>
1

>  <i_epik_Tot_abs_Q>
1

>  <s_lp_Force_Field>
OPLS_2005

>  <r_lp_Energy>
38.0252

>  <b_lp_Chiralities_Consistent>
1

>  <s_lp_Variant>
BACE_9.smi:1-1

>  <chiral flag>
1

>  <version>
0

>  <r_i_glide_lipo>
-0.710728

>  <r_i_glide_hbond>
-0.0540132

>  <r_i_glide_metal>
-0

>  <r_i_glide_rewards>
-0.0401973

>  <r_i_glide_erotb>
0.448381

>  <r_i_glide_esite>
-0.0114061

>  <s_i_glide_gridfile>
second_dock_grid_2

>  <i_i_glide_lignum>
18

>  <i_i_glide_rotatable_bonds>
9

>  <r_i_docking_score>
-1.69327

>  <r_i_glide_ligand_efficiency>
-0.0445596

>  <r_i_glide_ligand_efficiency_sa>
-0.149808

>  <r_i_glide_ligand_efficiency_ln>
-0.365118

>  <r_glide_XP_GScore>
-1.70627

>  <r_i_glide_gscore>
-1.70627

>  <r_i_glide_evdw>
-38.2638

>  <r_i_glide_ecoul>
-9.62636

>  <r_i_glide_energy>
-47.8901

>  <r_i_glide_einternal>
2.57597

>  <r_i_glide_emodel>
-65.8549

>  <r_glide_XP_HBond>
-0.7

>  <i_i_glide_confnum>
1

>  <i_i_glide_posenum>
1

>  <r_i_glide_eff_state_penalty>
0.013

>  <i_glide_XP_PoseRank>
6

>  <chiral flag>
1

$$$$
