BACE_5.smi:1
 OpenBabel10031817133D
Structure written by MMmdl.
 79 80  0  0  1  0  0  0  0  0999 V2000
   14.8215   38.4855   -7.4110 C   0  0  0  0  0  0  0  0  0  0  0  0
   14.4618   39.7570   -6.6436 C   0  0  0  0  0  0  0  0  0  0  0  0
   14.9038   41.0955   -7.2677 C   0  0  0  0  0  0  0  0  0  0  0  0
   15.3429   41.0050   -8.6745 C   0  0  0  0  0  0  0  0  0  0  0  0
   16.5945   40.9672   -9.1997 C   0  0  0  0  0  0  0  0  0  0  0  0
   16.3576   40.8212  -10.5903 C   0  0  0  0  0  0  0  0  0  0  0  0
   15.0729   40.7960  -10.9166 N   0  0  0  0  0  0  0  0  0  0  0  0
   14.4588   40.8989   -9.7224 N   0  0  0  0  0  0  0  0  0  0  0  0
   17.3922   40.6786  -11.6399 C   0  0  0  0  0  0  0  0  0  0  0  0
   18.3600   41.7686  -11.5643 N   0  0  0  0  0  0  0  0  0  0  0  0
   19.5004   41.6405  -12.4627 C   0  0  0  0  0  0  0  0  0  0  0  0
   20.4167   40.4413  -12.1364 C   0  0  2  0  0  0  0  0  0  0  0  0
   21.2809   40.5385  -10.8519 C   0  0  2  0  0  0  0  0  0  0  0  0
   20.4852   40.0987   -9.5926 C   0  0  0  0  0  0  0  0  0  0  0  0
   21.2890   39.2567   -8.5791 C   0  0  1  0  0  0  0  0  0  0  0  0
   20.4827   38.9622   -7.2884 C   0  0  0  0  0  0  0  0  0  0  0  0
   20.3029   40.1460   -6.3210 C   0  0  0  0  0  0  0  0  0  0  0  0
   21.6250   40.6512   -5.7267 C   0  0  0  0  0  0  0  0  0  0  0  0
   21.4401   41.7692   -4.6856 C   0  0  0  0  0  0  0  0  0  0  0  0
   22.7747   42.3288   -4.1593 C   0  0  0  0  0  0  0  0  0  0  0  0
   23.5413   43.1589   -5.1997 C   0  0  0  0  0  0  0  0  0  0  0  0
   22.8439   44.3743   -5.4311 O   0  0  0  0  0  0  0  0  0  0  0  0
   23.3573   45.1639   -6.4987 C   0  0  0  0  0  0  0  0  0  0  0  0
   22.9173   44.5900   -7.8619 C   0  0  0  0  0  0  0  0  0  0  0  0
   21.7124   44.6272   -8.1210 O   0  0  0  0  0  0  0  0  0  0  0  0
   23.8291   44.0978   -8.7428 N   0  0  0  0  0  0  0  0  0  0  0  0
   23.3777   43.6830  -10.0959 C   0  0  2  0  0  0  0  0  0  0  0  0
   23.0042   42.1916  -10.1159 C   0  0  0  0  0  0  0  0  0  0  0  0
   23.7819   41.3495   -9.6714 O   0  0  0  0  0  0  0  0  0  0  0  0
   21.8189   41.8860  -10.6666 N   0  0  0  0  0  0  0  0  0  0  0  0
   24.4630   43.9213  -11.1718 C   0  0  0  0  0  0  0  0  0  0  0  0
   25.2443   43.8903   -8.3871 C   0  0  0  0  0  0  0  0  0  0  0  0
   21.7341   37.9273   -9.1966 C   0  0  0  0  0  0  0  0  0  0  0  0
   21.2615   40.2541  -13.2397 O   0  0  0  0  0  0  0  0  0  0  0  0
   13.4505   40.8530   -9.6180 H   0  0  0  0  0  0  0  0  0  0  0  0
   19.8461   39.5152  -12.1155 H   0  0  0  0  0  0  0  0  0  0  0  0
   22.1248   39.8673  -10.9987 H   0  0  0  0  0  0  0  0  0  0  0  0
   22.1977   39.7910   -8.3166 H   0  0  0  0  0  0  0  0  0  0  0  0
   22.5125   44.2753  -10.4028 H   0  0  0  0  0  0  0  0  0  0  0  0
   14.4599   37.6334   -6.8399 H   0  0  0  0  0  0  0  0  0  0  0  0
   15.8990   38.3734   -7.5311 H   0  0  0  0  0  0  0  0  0  0  0  0
   14.3441   38.4446   -8.3897 H   0  0  0  0  0  0  0  0  0  0  0  0
   14.8691   39.6934   -5.6400 H   0  0  0  0  0  0  0  0  0  0  0  0
   13.3878   39.7501   -6.4959 H   0  0  0  0  0  0  0  0  0  0  0  0
   15.7153   41.5084   -6.6682 H   0  0  0  0  0  0  0  0  0  0  0  0
   14.1043   41.8335   -7.2399 H   0  0  0  0  0  0  0  0  0  0  0  0
   17.5317   41.0059   -8.6637 H   0  0  0  0  0  0  0  0  0  0  0  0
   16.9063   40.6527  -12.6047 H   0  0  0  0  0  0  0  0  0  0  0  0
   17.8663   39.7093  -11.5062 H   0  0  0  0  0  0  0  0  0  0  0  0
   18.6783   41.8517  -10.6028 H   0  0  0  0  0  0  0  0  0  0  0  0
   20.0790   42.5590  -12.4391 H   0  0  0  0  0  0  0  0  0  0  0  0
   19.1421   41.5538  -13.4871 H   0  0  0  0  0  0  0  0  0  0  0  0
   20.0694   40.9796   -9.1032 H   0  0  0  0  0  0  0  0  0  0  0  0
   19.6183   39.5049   -9.8820 H   0  0  0  0  0  0  0  0  0  0  0  0
   19.5005   38.5727   -7.5583 H   0  0  0  0  0  0  0  0  0  0  0  0
   20.9662   38.1545   -6.7354 H   0  0  0  0  0  0  0  0  0  0  0  0
   19.6609   39.8163   -5.5042 H   0  0  0  0  0  0  0  0  0  0  0  0
   19.7723   40.9630   -6.8092 H   0  0  0  0  0  0  0  0  0  0  0  0
   22.1632   39.8177   -5.2732 H   0  0  0  0  0  0  0  0  0  0  0  0
   22.2506   41.0165   -6.5355 H   0  0  0  0  0  0  0  0  0  0  0  0
   20.8599   41.3777   -3.8489 H   0  0  0  0  0  0  0  0  0  0  0  0
   20.8455   42.5801   -5.1099 H   0  0  0  0  0  0  0  0  0  0  0  0
   22.5932   42.9461   -3.2784 H   0  0  0  0  0  0  0  0  0  0  0  0
   23.4008   41.5014   -3.8230 H   0  0  0  0  0  0  0  0  0  0  0  0
   23.6598   42.5912   -6.1200 H   0  0  0  0  0  0  0  0  0  0  0  0
   24.5456   43.3755   -4.8401 H   0  0  0  0  0  0  0  0  0  0  0  0
   24.4277   45.3304   -6.3943 H   0  0  0  0  0  0  0  0  0  0  0  0
   22.9061   46.1529   -6.4087 H   0  0  0  0  0  0  0  0  0  0  0  0
   21.2471   42.6514  -10.9873 H   0  0  0  0  0  0  0  0  0  0  0  0
   24.0496   43.7683  -12.1697 H   0  0  0  0  0  0  0  0  0  0  0  0
   25.3156   43.2470  -11.0850 H   0  0  0  0  0  0  0  0  0  0  0  0
   24.8356   44.9450  -11.1350 H   0  0  0  0  0  0  0  0  0  0  0  0
   25.6743   43.0443   -8.9197 H   0  0  0  0  0  0  0  0  0  0  0  0
   25.3990   43.6549   -7.3372 H   0  0  0  0  0  0  0  0  0  0  0  0
   25.8318   44.7738   -8.6311 H   0  0  0  0  0  0  0  0  0  0  0  0
   22.2743   37.3494   -8.4572 H   0  0  0  0  0  0  0  0  0  0  0  0
   22.4222   38.0448  -10.0313 H   0  0  0  0  0  0  0  0  0  0  0  0
   20.8761   37.3494   -9.5361 H   0  0  0  0  0  0  0  0  0  0  0  0
   22.1422   40.5494  -13.0236 H   0  0  0  0  0  0  0  0  0  0  0  0
  1  2  1  0  0  0  0
  1 40  1  0  0  0  0
  1 41  1  0  0  0  0
  1 42  1  0  0  0  0
  2  3  1  0  0  0  0
  2 43  1  0  0  0  0
  2 44  1  0  0  0  0
  3  4  1  0  0  0  0
  3 45  1  0  0  0  0
  3 46  1  0  0  0  0
  4  8  1  0  0  0  0
  4  5  2  0  0  0  0
  5  6  1  0  0  0  0
  5 47  1  0  0  0  0
  6  7  2  0  0  0  0
  6  9  1  0  0  0  0
  7  8  1  0  0  0  0
  8 35  1  0  0  0  0
  9 10  1  0  0  0  0
  9 48  1  0  0  0  0
  9 49  1  0  0  0  0
 10 11  1  0  0  0  0
 10 50  1  0  0  0  0
 11 12  1  0  0  0  0
 11 51  1  0  0  0  0
 11 52  1  0  0  0  0
 12 36  1  1  0  0  0
 12 13  1  0  0  0  0
 12 34  1  0  0  0  0
 13 37  1  6  0  0  0
 13 30  1  0  0  0  0
 13 14  1  0  0  0  0
 14 15  1  0  0  0  0
 14 53  1  0  0  0  0
 14 54  1  0  0  0  0
 15 38  1  1  0  0  0
 15 16  1  0  0  0  0
 15 33  1  0  0  0  0
 16 17  1  0  0  0  0
 16 55  1  0  0  0  0
 16 56  1  0  0  0  0
 17 18  1  0  0  0  0
 17 57  1  0  0  0  0
 17 58  1  0  0  0  0
 18 19  1  0  0  0  0
 18 59  1  0  0  0  0
 18 60  1  0  0  0  0
 19 20  1  0  0  0  0
 19 61  1  0  0  0  0
 19 62  1  0  0  0  0
 20 21  1  0  0  0  0
 20 63  1  0  0  0  0
 20 64  1  0  0  0  0
 21 22  1  0  0  0  0
 21 65  1  0  0  0  0
 21 66  1  0  0  0  0
 22 23  1  0  0  0  0
 23 24  1  0  0  0  0
 23 67  1  0  0  0  0
 23 68  1  0  0  0  0
 24 25  2  0  0  0  0
 24 26  1  0  0  0  0
 26 27  1  0  0  0  0
 26 32  1  0  0  0  0
 27 39  1  6  0  0  0
 27 28  1  0  0  0  0
 27 31  1  0  0  0  0
 28 29  2  0  0  0  0
 28 30  1  0  0  0  0
 30 69  1  0  0  0  0
 31 70  1  0  0  0  0
 31 71  1  0  0  0  0
 31 72  1  0  0  0  0
 32 73  1  0  0  0  0
 32 74  1  0  0  0  0
 32 75  1  0  0  0  0
 33 76  1  0  0  0  0
 33 77  1  0  0  0  0
 33 78  1  0  0  0  0
 34 79  1  0  0  0  0
M  END
>  <s_m_source_file>
BACE_5.smi

>  <i_m_source_file_index>
1

>  <i_lp_mmshare_version>
42013

>  <i_f3d_flags>
0

>  <s_epik_input>
W0NIM11bQ0gyXVtDSDJdYzFbY0hdYyhuW25IXTEpW0NIMl1bTkhdW0NIMl1bQ0BASF0oW09IXSlbQ0BASF0yW0NIMl1bQ0BIXShbQ0gzXSlbQ0gyXVtDSDJdW0NIMl1bQ0gyXVtDSDJdW0NIMl1PW0NIMl1DKD1PKU4oW0NIM10pW0NAQEhdKFtDSDNdKUMoPU8pW05IXTI=

>  <s_epik_cmdline>
J2VwaWtfcHl0aG9uJywgJy1waCcsICc3LjAnLCAnLXRuJywgJzgnLCAnLW1hJywgJzIwMCcsICctaW1hZScsICc8aW5maWxlLm1hZT4nLCAnLW9tYWUnLCAnPG91dGZpbGUubWFlPic=

>  <r_lp_tautomer_probability>
0.5

>  <r_epik_Ionization_Penalty>
1.4191

>  <r_epik_Ionization_Penalty_Charging>
0

>  <r_epik_Ionization_Penalty_Neutral>
1.4191

>  <r_epik_State_Penalty>
1.7435

>  <r_epik_Charging_Adjusted_Penalty>
1.74351

>  <i_epik_Tot_Q>
0

>  <i_epik_Tot_abs_Q>
0

>  <s_lp_Force_Field>
OPLS_2005

>  <r_lp_Energy>
36.9156

>  <b_lp_Chiralities_Consistent>
1

>  <s_lp_Variant>
BACE_5.smi:1-4

>  <chiral flag>
1

>  <version>
0

>  <r_i_glide_lipo>
-0.492847

>  <r_i_glide_hbond>
-0.758524

>  <r_i_glide_metal>
-0

>  <r_i_glide_rewards>
-0.13871

>  <r_i_glide_erotb>
0.52871

>  <r_i_glide_esite>
-0.0811955

>  <s_i_glide_gridfile>
second_dock_grid_2

>  <i_i_glide_lignum>
11

>  <i_i_glide_rotatable_bonds>
8

>  <r_i_docking_score>
-1.0967

>  <r_i_glide_ligand_efficiency>
-0.0322558

>  <r_i_glide_ligand_efficiency_sa>
-0.104496

>  <r_i_glide_ligand_efficiency_ln>
-0.242291

>  <r_glide_XP_GScore>
-2.8402

>  <r_i_glide_gscore>
-2.8402

>  <r_i_glide_evdw>
-35.0905

>  <r_i_glide_ecoul>
-9.94914

>  <r_i_glide_energy>
-45.0396

>  <r_i_glide_einternal>
8.57978

>  <r_i_glide_emodel>
-59.3629

>  <r_glide_XP_HBond>
-3.07903

>  <i_i_glide_confnum>
1

>  <i_i_glide_posenum>
2

>  <r_i_glide_eff_state_penalty>
1.7435

>  <i_glide_XP_PoseRank>
5

>  <chiral flag>
1

$$$$
