BACE_9.smi:1
 OpenBabel10031817133D
Structure written by MMmdl.
 87 89  0  0  1  0  0  0  0  0999 V2000
   18.3547   46.6004   -6.8166 C   0  0  0  0  0  0  0  0  0  0  0  0
   18.8401   45.2424   -7.3470 C   0  0  2  0  0  0  0  0  0  0  0  0
   20.3673   45.1102   -7.2038 C   0  0  0  0  0  0  0  0  0  0  0  0
   20.8634   43.6766   -7.4432 C   0  0  0  0  0  0  0  0  0  0  0  0
   22.3356   43.4702   -7.0520 C   0  0  0  0  0  0  0  0  0  0  0  0
   22.7978   42.0199   -7.2530 C   0  0  0  0  0  0  0  0  0  0  0  0
   22.2685   41.0548   -6.1695 C   0  0  0  0  0  0  0  0  0  0  0  0
   22.3661   39.5634   -6.5415 C   0  0  0  0  0  0  0  0  0  0  0  0
   21.1274   39.0238   -7.2791 C   0  0  0  0  0  0  0  0  0  0  0  0
   20.9952   39.5845   -8.6129 N   0  0  0  0  0  0  0  0  0  0  0  0
   19.7035   39.6655   -9.1427 C   0  0  0  0  0  0  0  0  0  0  0  0
   18.7851   38.5978   -9.0331 C   0  0  0  0  0  0  0  0  0  0  0  0
   17.5015   38.7046   -9.6026 C   0  0  0  0  0  0  0  0  0  0  0  0
   17.1246   39.8947  -10.2610 C   0  0  0  0  0  0  0  0  0  0  0  0
   18.0290   40.9741  -10.3559 C   0  0  0  0  0  0  0  0  0  0  0  0
   19.3238   40.8435   -9.8133 C   0  0  0  0  0  0  0  0  0  0  0  0
   17.6405   42.2115  -11.1077 C   0  0  0  0  0  0  0  0  0  0  0  0
   17.4520   42.1469  -12.3209 O   0  0  0  0  0  0  0  0  0  0  0  0
   17.5214   43.3784  -10.4485 N   0  0  0  0  0  0  0  0  0  0  0  0
   17.5773   43.6525   -9.0070 C   0  0  1  0  0  0  0  0  0  0  0  0
   18.3368   44.9891   -8.7899 C   0  0  0  0  0  0  0  0  0  0  0  0
   16.1287   43.5833   -8.4265 C   0  0  1  0  0  0  0  0  0  0  0  0
   15.2354   44.8078   -8.7193 C   0  0  0  0  0  0  0  0  0  0  0  0
   13.8427   44.5484   -8.3457 N   0  0  0  0  0  0  0  0  0  0  0  0
   13.1788   43.5193   -9.1494 C   0  0  0  0  0  0  0  0  0  0  0  0
   13.0678   43.8229  -10.6340 C   0  0  0  0  0  0  0  0  0  0  0  0
   12.2799   43.0243  -11.4902 C   0  0  0  0  0  0  0  0  0  0  0  0
   12.1874   43.3431  -12.8561 C   0  0  0  0  0  0  0  0  0  0  0  0
   12.8598   44.4677  -13.3712 C   0  0  0  0  0  0  0  0  0  0  0  0
   13.6463   45.2777  -12.5242 C   0  0  0  0  0  0  0  0  0  0  0  0
   13.7374   44.9502  -11.1543 C   0  0  0  0  0  0  0  0  0  0  0  0
   14.3859   46.4859  -13.0899 C   0  0  0  0  0  0  0  0  0  0  0  0
   15.5286   46.9400  -12.1646 C   0  0  0  0  0  0  0  0  0  0  0  0
   13.4245   47.6417  -13.4105 C   0  0  0  0  0  0  0  0  0  0  0  0
   15.4452   42.4502   -8.9261 O   0  0  0  0  0  0  0  0  0  0  0  0
   16.5320   37.5436   -9.4903 C   0  0  0  0  0  0  0  0  0  0  0  0
   15.1823   37.9645   -9.6404 O   0  0  0  0  0  0  0  0  0  0  0  0
   14.7270   38.7163   -8.5281 C   0  0  0  0  0  0  0  0  0  0  0  0
   18.4368   44.4842   -6.6882 H   0  0  0  0  0  0  0  0  0  0  0  0
   18.1735   42.8738   -8.5331 H   0  0  0  0  0  0  0  0  0  0  0  0
   16.1920   43.4784   -7.3426 H   0  0  0  0  0  0  0  0  0  0  0  0
   18.7576   47.4264   -7.3991 H   0  0  0  0  0  0  0  0  0  0  0  0
   18.6584   46.7501   -5.7793 H   0  0  0  0  0  0  0  0  0  0  0  0
   17.2679   46.6736   -6.8436 H   0  0  0  0  0  0  0  0  0  0  0  0
   20.8843   45.8012   -7.8713 H   0  0  0  0  0  0  0  0  0  0  0  0
   20.6495   45.4016   -6.1908 H   0  0  0  0  0  0  0  0  0  0  0  0
   20.2364   42.9894   -6.8755 H   0  0  0  0  0  0  0  0  0  0  0  0
   20.7289   43.4122   -8.4913 H   0  0  0  0  0  0  0  0  0  0  0  0
   22.9597   44.1276   -7.6598 H   0  0  0  0  0  0  0  0  0  0  0  0
   22.5017   43.7670   -6.0146 H   0  0  0  0  0  0  0  0  0  0  0  0
   22.5097   41.6960   -8.2519 H   0  0  0  0  0  0  0  0  0  0  0  0
   23.8906   41.9818   -7.2415 H   0  0  0  0  0  0  0  0  0  0  0  0
   22.8433   41.2314   -5.2607 H   0  0  0  0  0  0  0  0  0  0  0  0
   21.2374   41.2835   -5.9033 H   0  0  0  0  0  0  0  0  0  0  0  0
   23.2761   39.3623   -7.1087 H   0  0  0  0  0  0  0  0  0  0  0  0
   22.4625   38.9947   -5.6155 H   0  0  0  0  0  0  0  0  0  0  0  0
   21.1945   37.9381   -7.3615 H   0  0  0  0  0  0  0  0  0  0  0  0
   20.2304   39.2458   -6.7007 H   0  0  0  0  0  0  0  0  0  0  0  0
   21.5942   40.3739   -8.7958 H   0  0  0  0  0  0  0  0  0  0  0  0
   19.0660   37.6850   -8.5283 H   0  0  0  0  0  0  0  0  0  0  0  0
   16.1406   39.9774  -10.6996 H   0  0  0  0  0  0  0  0  0  0  0  0
   20.0271   41.6572   -9.9139 H   0  0  0  0  0  0  0  0  0  0  0  0
   17.2486   44.1661  -11.0146 H   0  0  0  0  0  0  0  0  0  0  0  0
   17.7129   45.8154   -9.1265 H   0  0  0  0  0  0  0  0  0  0  0  0
   19.1953   45.0150   -9.4611 H   0  0  0  0  0  0  0  0  0  0  0  0
   15.6221   45.6963   -8.2315 H   0  0  0  0  0  0  0  0  0  0  0  0
   15.2851   45.0409   -9.7828 H   0  0  0  0  0  0  0  0  0  0  0  0
   13.8378   44.2715   -7.3680 H   0  0  0  0  0  0  0  0  0  0  0  0
   13.7284   42.5833   -9.0555 H   0  0  0  0  0  0  0  0  0  0  0  0
   12.1839   43.3168   -8.7479 H   0  0  0  0  0  0  0  0  0  0  0  0
   11.7428   42.1657  -11.1133 H   0  0  0  0  0  0  0  0  0  0  0  0
   11.5907   42.7236  -13.5052 H   0  0  0  0  0  0  0  0  0  0  0  0
   12.7645   44.7063  -14.4235 H   0  0  0  0  0  0  0  0  0  0  0  0
   14.3309   45.5700  -10.4964 H   0  0  0  0  0  0  0  0  0  0  0  0
   14.8391   46.1800  -14.0349 H   0  0  0  0  0  0  0  0  0  0  0  0
   16.2170   46.1209  -11.9520 H   0  0  0  0  0  0  0  0  0  0  0  0
   15.1528   47.3084  -11.2103 H   0  0  0  0  0  0  0  0  0  0  0  0
   16.1042   47.7427  -12.6241 H   0  0  0  0  0  0  0  0  0  0  0  0
   12.6621   47.3255  -14.1199 H   0  0  0  0  0  0  0  0  0  0  0  0
   13.9540   48.4816  -13.8591 H   0  0  0  0  0  0  0  0  0  0  0  0
   12.9193   48.0048  -12.5142 H   0  0  0  0  0  0  0  0  0  0  0  0
   15.0239   42.0060   -8.2045 H   0  0  0  0  0  0  0  0  0  0  0  0
   16.7806   36.8146  -10.2665 H   0  0  0  0  0  0  0  0  0  0  0  0
   16.6576   37.0486   -8.5272 H   0  0  0  0  0  0  0  0  0  0  0  0
   13.6928   39.0212   -8.6883 H   0  0  0  0  0  0  0  0  0  0  0  0
   15.3292   39.6140   -8.3849 H   0  0  0  0  0  0  0  0  0  0  0  0
   14.7650   38.1188   -7.6144 H   0  0  0  0  0  0  0  0  0  0  0  0
  1  2  1  0  0  0  0
  1 42  1  0  0  0  0
  1 43  1  0  0  0  0
  1 44  1  0  0  0  0
  2 39  1  1  0  0  0
  2 21  1  0  0  0  0
  2  3  1  0  0  0  0
  3  4  1  0  0  0  0
  3 45  1  0  0  0  0
  3 46  1  0  0  0  0
  4  5  1  0  0  0  0
  4 47  1  0  0  0  0
  4 48  1  0  0  0  0
  5  6  1  0  0  0  0
  5 49  1  0  0  0  0
  5 50  1  0  0  0  0
  6  7  1  0  0  0  0
  6 51  1  0  0  0  0
  6 52  1  0  0  0  0
  7  8  1  0  0  0  0
  7 53  1  0  0  0  0
  7 54  1  0  0  0  0
  8  9  1  0  0  0  0
  8 55  1  0  0  0  0
  8 56  1  0  0  0  0
  9 10  1  0  0  0  0
  9 57  1  0  0  0  0
  9 58  1  0  0  0  0
 10 11  1  0  0  0  0
 10 59  1  0  0  0  0
 11 16  1  0  0  0  0
 11 12  2  0  0  0  0
 12 13  1  0  0  0  0
 12 60  1  0  0  0  0
 13 14  2  0  0  0  0
 13 36  1  0  0  0  0
 14 15  1  0  0  0  0
 14 61  1  0  0  0  0
 15 16  2  0  0  0  0
 15 17  1  0  0  0  0
 16 62  1  0  0  0  0
 17 18  2  0  0  0  0
 17 19  1  0  0  0  0
 19 20  1  0  0  0  0
 19 63  1  0  0  0  0
 20 40  1  1  0  0  0
 20 21  1  0  0  0  0
 20 22  1  0  0  0  0
 21 64  1  0  0  0  0
 21 65  1  0  0  0  0
 22 41  1  1  0  0  0
 22 23  1  0  0  0  0
 22 35  1  0  0  0  0
 23 24  1  0  0  0  0
 23 66  1  0  0  0  0
 23 67  1  0  0  0  0
 24 25  1  0  0  0  0
 24 68  1  0  0  0  0
 25 26  1  0  0  0  0
 25 69  1  0  0  0  0
 25 70  1  0  0  0  0
 26 31  1  0  0  0  0
 26 27  2  0  0  0  0
 27 28  1  0  0  0  0
 27 71  1  0  0  0  0
 28 29  2  0  0  0  0
 28 72  1  0  0  0  0
 29 30  1  0  0  0  0
 29 73  1  0  0  0  0
 30 31  2  0  0  0  0
 30 32  1  0  0  0  0
 31 74  1  0  0  0  0
 32 33  1  0  0  0  0
 32 34  1  0  0  0  0
 32 75  1  0  0  0  0
 33 76  1  0  0  0  0
 33 77  1  0  0  0  0
 33 78  1  0  0  0  0
 34 79  1  0  0  0  0
 34 80  1  0  0  0  0
 34 81  1  0  0  0  0
 35 82  1  0  0  0  0
 36 37  1  0  0  0  0
 36 83  1  0  0  0  0
 36 84  1  0  0  0  0
 37 38  1  0  0  0  0
 38 85  1  0  0  0  0
 38 86  1  0  0  0  0
 38 87  1  0  0  0  0
M  END
>  <s_m_source_file>
BACE_9.smi

>  <i_m_source_file_index>
1

>  <i_lp_mmshare_version>
42013

>  <i_f3d_flags>
0

>  <s_epik_input>
W05IXTFbQ0gyXVtDSDJdW0NIMl1bQ0gyXVtDSDJdW0NIMl1bQ0gyXVtDQEBIXShbQ0gzXSlbQ0gyXVtDQEhdKFtOSF1DKD1PKWMoW2NIXTIpW2NIXWMoW2NIXWMxMilbQ0gyXU9bQ0gzXSlbQ0BIXShbT0hdKVtDSDJdW05IXVtDSDJdYzNbY0hdW2NIXVtjSF1jKFtjSF0zKVtDSF0oW0NIM10pW0NIM10=

>  <s_epik_cmdline>
J2VwaWtfcHl0aG9uJywgJy1waCcsICc3LjAnLCAnLXRuJywgJzgnLCAnLW1hJywgJzIwMCcsICctaW1hZScsICc8aW5maWxlLm1hZT4nLCAnLW9tYWUnLCAnPG91dGZpbGUubWFlPic=

>  <r_epik_Ionization_Penalty>
2.13

>  <r_epik_Ionization_Penalty_Charging>
0

>  <r_epik_Ionization_Penalty_Neutral>
2.13

>  <r_epik_State_Penalty>
2.2676

>  <r_epik_Charging_Adjusted_Penalty>
2.26762

>  <i_epik_Tot_Q>
0

>  <i_epik_Tot_abs_Q>
0

>  <s_lp_Force_Field>
OPLS_2005

>  <r_lp_Energy>
47.2954

>  <b_lp_Chiralities_Consistent>
1

>  <s_lp_Variant>
BACE_9.smi:1-2

>  <chiral flag>
1

>  <version>
0

>  <r_i_glide_lipo>
-0.947222

>  <r_i_glide_hbond>
-0.319819

>  <r_i_glide_metal>
-0

>  <r_i_glide_rewards>
0

>  <r_i_glide_erotb>
0.44997

>  <r_i_glide_esite>
-0.00440583

>  <s_i_glide_gridfile>
second_dock_grid_2

>  <i_i_glide_lignum>
19

>  <i_i_glide_rotatable_bonds>
9

>  <r_i_docking_score>
-0.312207

>  <r_i_glide_ligand_efficiency>
-0.00821597

>  <r_i_glide_ligand_efficiency_sa>
-0.0276219

>  <r_i_glide_ligand_efficiency_ln>
-0.067321

>  <r_glide_XP_GScore>
-2.57981

>  <r_i_glide_gscore>
-2.57981

>  <r_i_glide_evdw>
-31.9174

>  <r_i_glide_ecoul>
-6.43198

>  <r_i_glide_energy>
-38.3494

>  <r_i_glide_einternal>
3.08447

>  <r_i_glide_emodel>
-57.8843

>  <r_glide_XP_HBond>
-1.62339

>  <i_i_glide_confnum>
1

>  <i_i_glide_posenum>
28

>  <r_i_glide_eff_state_penalty>
2.2676

>  <i_glide_XP_PoseRank>
7

>  <chiral flag>
1

$$$$
