BACE_9.smi:1
 OpenBabel10031817133D
Structure written by MMmdl.
 88 90  0  0  1  0  0  0  0  0999 V2000
   24.3052   43.7489  -12.5998 C   0  0  0  0  0  0  0  0  0  0  0  0
   23.4882   43.9570  -11.3160 C   0  0  2  0  0  0  0  0  0  0  0  0
   22.5091   45.1359  -11.5120 C   0  0  0  0  0  0  0  0  0  0  0  0
   21.5043   45.3324  -10.3664 C   0  0  0  0  0  0  0  0  0  0  0  0
   20.4423   46.3984  -10.6861 C   0  0  0  0  0  0  0  0  0  0  0  0
   19.5659   46.7628   -9.4771 C   0  0  0  0  0  0  0  0  0  0  0  0
   18.5478   45.6720   -9.0927 C   0  0  0  0  0  0  0  0  0  0  0  0
   17.8885   45.9036   -7.7179 C   0  0  0  0  0  0  0  0  0  0  0  0
   18.6020   45.1773   -6.5652 C   0  0  0  0  0  0  0  0  0  0  0  0
   19.9639   45.6498   -6.3657 N   0  0  0  0  0  0  0  0  0  0  0  0
   20.9164   44.7305   -5.9075 C   0  0  0  0  0  0  0  0  0  0  0  0
   20.5916   43.6946   -5.0061 C   0  0  0  0  0  0  0  0  0  0  0  0
   21.5835   42.8068   -4.5448 C   0  0  0  0  0  0  0  0  0  0  0  0
   22.9105   42.9435   -4.9985 C   0  0  0  0  0  0  0  0  0  0  0  0
   23.2408   43.9487   -5.9328 C   0  0  0  0  0  0  0  0  0  0  0  0
   22.2447   44.8532   -6.3624 C   0  0  0  0  0  0  0  0  0  0  0  0
   24.6506   44.0852   -6.4253 C   0  0  0  0  0  0  0  0  0  0  0  0
   25.5663   44.3054   -5.6407 O   0  0  0  0  0  0  0  0  0  0  0  0
   24.8917   43.9426   -7.7383 N   0  0  0  0  0  0  0  0  0  0  0  0
   24.0202   43.4297   -8.7986 C   0  0  1  0  0  0  0  0  0  0  0  0
   24.4432   44.1413  -10.1086 C   0  0  0  0  0  0  0  0  0  0  0  0
   24.0866   41.8654   -8.7970 C   0  0  1  0  0  0  0  0  0  0  0  0
   22.7264   41.2143   -8.4673 C   0  0  0  0  0  0  0  0  0  0  0  0
   22.8601   39.7478   -8.3306 N   0  3  0  0  0  0  0  0  0  0  0  0
   21.7273   39.0439   -7.6881 C   0  0  0  0  0  0  0  0  0  0  0  0
   20.4132   39.1426   -8.4493 C   0  0  0  0  0  0  0  0  0  0  0  0
   20.3665   38.9712   -9.8515 C   0  0  0  0  0  0  0  0  0  0  0  0
   19.1357   39.0487  -10.5298 C   0  0  0  0  0  0  0  0  0  0  0  0
   17.9446   39.2680   -9.8130 C   0  0  0  0  0  0  0  0  0  0  0  0
   17.9722   39.4030   -8.4068 C   0  0  0  0  0  0  0  0  0  0  0  0
   19.2135   39.3583   -7.7366 C   0  0  0  0  0  0  0  0  0  0  0  0
   16.6856   39.5860   -7.6030 C   0  0  0  0  0  0  0  0  0  0  0  0
   15.5671   38.6210   -8.0391 C   0  0  0  0  0  0  0  0  0  0  0  0
   16.2100   41.0475   -7.6300 C   0  0  0  0  0  0  0  0  0  0  0  0
   24.5458   41.3492  -10.0345 O   0  0  0  0  0  0  0  0  0  0  0  0
   21.1988   41.7223   -3.5621 C   0  0  0  0  0  0  0  0  0  0  0  0
   20.8829   42.2791   -2.2983 O   0  0  0  0  0  0  0  0  0  0  0  0
   20.0380   41.4469   -1.5275 C   0  0  0  0  0  0  0  0  0  0  0  0
   22.8975   43.0514  -11.1718 H   0  0  0  0  0  0  0  0  0  0  0  0
   22.9945   43.7301   -8.5984 H   0  0  0  0  0  0  0  0  0  0  0  0
   24.8057   41.5384   -8.0452 H   0  0  0  0  0  0  0  0  0  0  0  0
   24.8753   44.6414  -12.8632 H   0  0  0  0  0  0  0  0  0  0  0  0
   23.6600   43.4980  -13.4407 H   0  0  0  0  0  0  0  0  0  0  0  0
   25.0087   42.9236  -12.4821 H   0  0  0  0  0  0  0  0  0  0  0  0
   23.0694   46.0601  -11.6626 H   0  0  0  0  0  0  0  0  0  0  0  0
   21.9547   44.9769  -12.4371 H   0  0  0  0  0  0  0  0  0  0  0  0
   21.0193   44.3824  -10.1424 H   0  0  0  0  0  0  0  0  0  0  0  0
   22.0435   45.6285   -9.4667 H   0  0  0  0  0  0  0  0  0  0  0  0
   20.9500   47.3025  -11.0253 H   0  0  0  0  0  0  0  0  0  0  0  0
   19.8188   46.0694  -11.5178 H   0  0  0  0  0  0  0  0  0  0  0  0
   20.2159   47.0092   -8.6398 H   0  0  0  0  0  0  0  0  0  0  0  0
   19.0182   47.6797   -9.7013 H   0  0  0  0  0  0  0  0  0  0  0  0
   17.7722   45.6445   -9.8594 H   0  0  0  0  0  0  0  0  0  0  0  0
   19.0067   44.6841   -9.1057 H   0  0  0  0  0  0  0  0  0  0  0  0
   17.7993   46.9700   -7.5058 H   0  0  0  0  0  0  0  0  0  0  0  0
   16.8677   45.5211   -7.7571 H   0  0  0  0  0  0  0  0  0  0  0  0
   18.0597   45.3504   -5.6401 H   0  0  0  0  0  0  0  0  0  0  0  0
   18.5874   44.1007   -6.7517 H   0  0  0  0  0  0  0  0  0  0  0  0
   20.2906   46.3258   -7.0408 H   0  0  0  0  0  0  0  0  0  0  0  0
   19.5853   43.5785   -4.6336 H   0  0  0  0  0  0  0  0  0  0  0  0
   23.6735   42.2711   -4.6337 H   0  0  0  0  0  0  0  0  0  0  0  0
   22.5047   45.6435   -7.0524 H   0  0  0  0  0  0  0  0  0  0  0  0
   25.8516   44.0978   -8.0098 H   0  0  0  0  0  0  0  0  0  0  0  0
   25.4480   43.8010  -10.3698 H   0  0  0  0  0  0  0  0  0  0  0  0
   24.5607   45.2101   -9.9231 H   0  0  0  0  0  0  0  0  0  0  0  0
   22.3517   41.6180   -7.5272 H   0  0  0  0  0  0  0  0  0  0  0  0
   21.9886   41.4542   -9.2350 H   0  0  0  0  0  0  0  0  0  0  0  0
   23.0243   39.3482   -9.2439 H   0  0  0  0  0  0  0  0  0  0  0  0
   21.9845   37.9892   -7.5961 H   0  0  0  0  0  0  0  0  0  0  0  0
   21.6036   39.4261   -6.6729 H   0  0  0  0  0  0  0  0  0  0  0  0
   21.2661   38.7830  -10.4167 H   0  0  0  0  0  0  0  0  0  0  0  0
   19.0990   38.9275  -11.6047 H   0  0  0  0  0  0  0  0  0  0  0  0
   17.0069   39.3123  -10.3472 H   0  0  0  0  0  0  0  0  0  0  0  0
   19.2374   39.4668   -6.6611 H   0  0  0  0  0  0  0  0  0  0  0  0
   16.9130   39.3371   -6.5647 H   0  0  0  0  0  0  0  0  0  0  0  0
   15.9192   37.5864   -8.0403 H   0  0  0  0  0  0  0  0  0  0  0  0
   15.1945   38.8496   -9.0371 H   0  0  0  0  0  0  0  0  0  0  0  0
   14.7194   38.6755   -7.3534 H   0  0  0  0  0  0  0  0  0  0  0  0
   16.9787   41.7185   -7.2422 H   0  0  0  0  0  0  0  0  0  0  0  0
   15.3215   41.1790   -7.0092 H   0  0  0  0  0  0  0  0  0  0  0  0
   15.9612   41.3686   -8.6416 H   0  0  0  0  0  0  0  0  0  0  0  0
   24.8790   40.4667   -9.9328 H   0  0  0  0  0  0  0  0  0  0  0  0
   20.3415   41.1891   -3.9814 H   0  0  0  0  0  0  0  0  0  0  0  0
   22.0038   40.9940   -3.4509 H   0  0  0  0  0  0  0  0  0  0  0  0
   19.8781   41.8847   -0.5428 H   0  0  0  0  0  0  0  0  0  0  0  0
   20.4590   40.4500   -1.3939 H   0  0  0  0  0  0  0  0  0  0  0  0
   19.0678   41.3498   -2.0124 H   0  0  0  0  0  0  0  0  0  0  0  0
   23.6791   39.5629   -7.7721 H   0  0  0  0  0  0  0  0  0  0  0  0
  1  2  1  0  0  0  0
  1 42  1  0  0  0  0
  1 43  1  0  0  0  0
  1 44  1  0  0  0  0
  2 39  1  1  0  0  0
  2 21  1  0  0  0  0
  2  3  1  0  0  0  0
  3  4  1  0  0  0  0
  3 45  1  0  0  0  0
  3 46  1  0  0  0  0
  4  5  1  0  0  0  0
  4 47  1  0  0  0  0
  4 48  1  0  0  0  0
  5  6  1  0  0  0  0
  5 49  1  0  0  0  0
  5 50  1  0  0  0  0
  6  7  1  0  0  0  0
  6 51  1  0  0  0  0
  6 52  1  0  0  0  0
  7  8  1  0  0  0  0
  7 53  1  0  0  0  0
  7 54  1  0  0  0  0
  8  9  1  0  0  0  0
  8 55  1  0  0  0  0
  8 56  1  0  0  0  0
  9 10  1  0  0  0  0
  9 57  1  0  0  0  0
  9 58  1  0  0  0  0
 10 11  1  0  0  0  0
 10 59  1  0  0  0  0
 11 16  1  0  0  0  0
 11 12  2  0  0  0  0
 12 13  1  0  0  0  0
 12 60  1  0  0  0  0
 13 14  2  0  0  0  0
 13 36  1  0  0  0  0
 14 15  1  0  0  0  0
 14 61  1  0  0  0  0
 15 16  2  0  0  0  0
 15 17  1  0  0  0  0
 16 62  1  0  0  0  0
 17 18  2  0  0  0  0
 17 19  1  0  0  0  0
 19 20  1  0  0  0  0
 19 63  1  0  0  0  0
 20 40  1  1  0  0  0
 20 21  1  0  0  0  0
 20 22  1  0  0  0  0
 21 64  1  0  0  0  0
 21 65  1  0  0  0  0
 22 41  1  1  0  0  0
 22 23  1  0  0  0  0
 22 35  1  0  0  0  0
 23 24  1  0  0  0  0
 23 66  1  0  0  0  0
 23 67  1  0  0  0  0
 24 25  1  0  0  0  0
 24 68  1  0  0  0  0
 24 88  1  0  0  0  0
 25 26  1  0  0  0  0
 25 69  1  0  0  0  0
 25 70  1  0  0  0  0
 26 31  1  0  0  0  0
 26 27  2  0  0  0  0
 27 28  1  0  0  0  0
 27 71  1  0  0  0  0
 28 29  2  0  0  0  0
 28 72  1  0  0  0  0
 29 30  1  0  0  0  0
 29 73  1  0  0  0  0
 30 31  2  0  0  0  0
 30 32  1  0  0  0  0
 31 74  1  0  0  0  0
 32 33  1  0  0  0  0
 32 34  1  0  0  0  0
 32 75  1  0  0  0  0
 33 76  1  0  0  0  0
 33 77  1  0  0  0  0
 33 78  1  0  0  0  0
 34 79  1  0  0  0  0
 34 80  1  0  0  0  0
 34 81  1  0  0  0  0
 35 82  1  0  0  0  0
 36 37  1  0  0  0  0
 36 83  1  0  0  0  0
 36 84  1  0  0  0  0
 37 38  1  0  0  0  0
 38 85  1  0  0  0  0
 38 86  1  0  0  0  0
 38 87  1  0  0  0  0
M  CHG  1  24   1
M  END
>  <s_m_source_file>
BACE_9.smi

>  <i_m_source_file_index>
1

>  <i_lp_mmshare_version>
42013

>  <i_f3d_flags>
0

>  <s_epik_input>
W05IXTFbQ0gyXVtDSDJdW0NIMl1bQ0gyXVtDSDJdW0NIMl1bQ0gyXVtDQEBIXShbQ0gzXSlbQ0gyXVtDQEhdKFtOSF1DKD1PKWMoW2NIXTIpW2NIXWMoW2NIXWMxMilbQ0gyXU9bQ0gzXSlbQ0BIXShbT0hdKVtDSDJdW05IXVtDSDJdYzNbY0hdW2NIXVtjSF1jKFtjSF0zKVtDSF0oW0NIM10pW0NIM10=

>  <s_epik_cmdline>
J2VwaWtfcHl0aG9uJywgJy1waCcsICc3LjAnLCAnLXRuJywgJzgnLCAnLW1hJywgJzIwMCcsICctaW1hZScsICc8aW5maWxlLm1hZT4nLCAnLW9tYWUnLCAnPG91dGZpbGUubWFlPic=

>  <r_epik_Ionization_Penalty>
0.0171

>  <r_epik_Ionization_Penalty_Charging>
0.0165

>  <r_epik_Ionization_Penalty_Neutral>
0.0006

>  <r_epik_State_Penalty>
0.013

>  <r_epik_Charging_Adjusted_Penalty>
0.0295552

>  <i_epik_Tot_Q>
1

>  <i_epik_Tot_abs_Q>
1

>  <s_lp_Force_Field>
OPLS_2005

>  <r_lp_Energy>
38.0252

>  <b_lp_Chiralities_Consistent>
1

>  <s_lp_Variant>
BACE_9.smi:1-1

>  <chiral flag>
1

>  <version>
0

>  <r_i_glide_lipo>
-0.710728

>  <r_i_glide_hbond>
-0.0540132

>  <r_i_glide_metal>
-0

>  <r_i_glide_rewards>
-0.0401973

>  <r_i_glide_erotb>
0.448381

>  <r_i_glide_esite>
-0.0114061

>  <s_i_glide_gridfile>
second_dock_grid_2

>  <i_i_glide_lignum>
18

>  <i_i_glide_rotatable_bonds>
9

>  <r_i_docking_score>
-0.3509

>  <r_i_glide_ligand_efficiency>
-0.00923421

>  <r_i_glide_ligand_efficiency_sa>
-0.0310452

>  <r_i_glide_ligand_efficiency_ln>
-0.0756643

>  <r_glide_XP_GScore>
-0.3639

>  <r_i_glide_gscore>
-0.3639

>  <r_i_glide_evdw>
-42.1909

>  <r_i_glide_ecoul>
-5.29197

>  <r_i_glide_energy>
-47.4829

>  <r_i_glide_einternal>
4.75721

>  <r_i_glide_emodel>
-61.6523

>  <r_glide_XP_HBond>
-0.7

>  <i_i_glide_confnum>
1

>  <i_i_glide_posenum>
45

>  <r_i_glide_eff_state_penalty>
0.013

>  <i_glide_XP_PoseRank>
8

>  <chiral flag>
1

$$$$
