BACE_14.smi:1
 OpenBabel10031817133D
Structure written by MMmdl.
 85 89  0  0  1  0  0  0  0  0999 V2000
   21.8927   41.7624  -10.6877 C   0  0  0  0  0  0  0  0  0  0  0  0
   20.6669   40.9114  -11.0674 C   0  0  0  0  0  0  0  0  0  0  0  0
   20.9669   39.9799  -12.2495 C   0  0  0  0  0  0  0  0  0  0  0  0
   20.0826   40.1261   -9.8981 C   0  0  0  0  0  0  0  0  0  0  0  0
   20.9116   39.5205   -8.9271 C   0  0  0  0  0  0  0  0  0  0  0  0
   20.3418   38.7953   -7.8635 C   0  0  0  0  0  0  0  0  0  0  0  0
   18.9449   38.6535   -7.7748 C   0  0  0  0  0  0  0  0  0  0  0  0
   18.1029   39.2369   -8.7457 C   0  0  0  0  0  0  0  0  0  0  0  0
   18.6834   39.9741   -9.8007 C   0  0  0  0  0  0  0  0  0  0  0  0
   16.6096   39.0776   -8.6392 C   0  0  0  0  0  0  0  0  0  0  0  0
   15.7324   38.8921   -9.8580 C   0  0  0  0  0  0  0  0  0  0  0  0
   16.0405   37.7193   -8.9555 C   0  0  0  0  0  0  0  0  0  0  0  0
   16.0226   39.7939   -7.5015 N   0  0  0  0  0  0  0  0  0  0  0  0
   16.4242   41.1914   -7.2948 C   0  0  0  0  0  0  0  0  0  0  0  0
   15.9285   42.1479   -8.4052 C   0  0  2  0  0  0  0  0  0  0  0  0
   16.7429   43.4618   -8.6450 C   0  0  2  0  0  0  0  0  0  0  0  0
   17.0281   43.6391  -10.1578 C   0  0  0  0  0  0  0  0  0  0  0  0
   17.8674   44.8514  -10.5287 C   0  0  0  0  0  0  0  0  0  0  0  0
   17.2678   46.1213  -10.6484 C   0  0  0  0  0  0  0  0  0  0  0  0
   18.0528   47.2362  -11.0000 C   0  0  0  0  0  0  0  0  0  0  0  0
   19.4362   47.0898  -11.2259 C   0  0  0  0  0  0  0  0  0  0  0  0
   20.0519   45.8209  -11.0961 C   0  0  0  0  0  0  0  0  0  0  0  0
   19.2523   44.7107  -10.7572 C   0  0  0  0  0  0  0  0  0  0  0  0
   21.3975   45.5760  -11.2809 O   0  0  0  0  0  0  0  0  0  0  0  0
   22.3112   46.6649  -11.3982 C   0  0  0  0  0  0  0  0  0  0  0  0
   22.5395   47.3904  -10.0566 C   0  0  0  0  0  0  0  0  0  0  0  0
   23.0145   46.4523   -8.9370 C   0  0  0  0  0  0  0  0  0  0  0  0
   23.0256   47.1452   -7.5577 C   0  0  0  0  0  0  0  0  0  0  0  0
   23.1197   46.2022   -6.4477 N   0  0  0  0  0  0  0  0  0  0  0  0
   22.0868   45.2771   -6.2213 C   0  0  0  0  0  0  0  0  0  0  0  0
   20.7867   45.4492   -6.7509 C   0  0  0  0  0  0  0  0  0  0  0  0
   19.8113   44.4459   -6.6031 C   0  0  0  0  0  0  0  0  0  0  0  0
   20.1164   43.2918   -5.8538 C   0  0  0  0  0  0  0  0  0  0  0  0
   21.3958   43.1165   -5.2767 C   0  0  0  0  0  0  0  0  0  0  0  0
   22.3770   44.1160   -5.4747 C   0  0  0  0  0  0  0  0  0  0  0  0
   21.7453   41.8967   -4.4948 C   0  0  0  0  0  0  0  0  0  0  0  0
   22.8679   41.6862   -4.0389 O   0  0  0  0  0  0  0  0  0  0  0  0
   20.6531   40.8601   -4.2462 C   0  0  0  0  0  0  0  0  0  0  0  0
   18.4656   44.6205   -7.2394 C   0  0  0  0  0  0  0  0  0  0  0  0
   17.9103   45.7192   -7.2402 O   0  0  0  0  0  0  0  0  0  0  0  0
   17.9820   43.5328   -7.8628 N   0  0  0  0  0  0  0  0  0  0  0  0
   14.6195   42.5262   -8.0400 O   0  0  0  0  0  0  0  0  0  0  0  0
   15.8533   41.6053   -9.3478 H   0  0  0  0  0  0  0  0  0  0  0  0
   16.1240   44.3088   -8.3393 H   0  0  0  0  0  0  0  0  0  0  0  0
   22.2004   42.3928  -11.5235 H   0  0  0  0  0  0  0  0  0  0  0  0
   22.7519   41.1461  -10.4222 H   0  0  0  0  0  0  0  0  0  0  0  0
   21.6729   42.4201   -9.8446 H   0  0  0  0  0  0  0  0  0  0  0  0
   19.8983   41.6101  -11.3972 H   0  0  0  0  0  0  0  0  0  0  0  0
   21.4031   40.5252  -13.0888 H   0  0  0  0  0  0  0  0  0  0  0  0
   20.0570   39.4934  -12.6006 H   0  0  0  0  0  0  0  0  0  0  0  0
   21.6601   39.1931  -11.9593 H   0  0  0  0  0  0  0  0  0  0  0  0
   21.9863   39.6016   -8.9852 H   0  0  0  0  0  0  0  0  0  0  0  0
   20.9782   38.3367   -7.1198 H   0  0  0  0  0  0  0  0  0  0  0  0
   18.5142   38.0926   -6.9560 H   0  0  0  0  0  0  0  0  0  0  0  0
   18.0463   40.4162  -10.5520 H   0  0  0  0  0  0  0  0  0  0  0  0
   14.7139   39.2743   -9.8198 H   0  0  0  0  0  0  0  0  0  0  0  0
   16.2065   38.9269  -10.8357 H   0  0  0  0  0  0  0  0  0  0  0  0
   16.7157   36.9582   -9.3428 H   0  0  0  0  0  0  0  0  0  0  0  0
   15.2606   37.3562   -8.2942 H   0  0  0  0  0  0  0  0  0  0  0  0
   16.0611   39.2362   -6.6494 H   0  0  0  0  0  0  0  0  0  0  0  0
   17.5092   41.2194   -7.2397 H   0  0  0  0  0  0  0  0  0  0  0  0
   16.0517   41.5418   -6.3327 H   0  0  0  0  0  0  0  0  0  0  0  0
   17.5331   42.7506  -10.5408 H   0  0  0  0  0  0  0  0  0  0  0  0
   16.0835   43.6971  -10.6990 H   0  0  0  0  0  0  0  0  0  0  0  0
   16.2100   46.2444  -10.4697 H   0  0  0  0  0  0  0  0  0  0  0  0
   17.5950   48.2095  -11.0925 H   0  0  0  0  0  0  0  0  0  0  0  0
   20.0021   47.9670  -11.4950 H   0  0  0  0  0  0  0  0  0  0  0  0
   19.7158   43.7424  -10.6550 H   0  0  0  0  0  0  0  0  0  0  0  0
   23.2594   46.2479  -11.7392 H   0  0  0  0  0  0  0  0  0  0  0  0
   21.9994   47.3583  -12.1800 H   0  0  0  0  0  0  0  0  0  0  0  0
   23.2715   48.1863  -10.1977 H   0  0  0  0  0  0  0  0  0  0  0  0
   21.6173   47.8811   -9.7453 H   0  0  0  0  0  0  0  0  0  0  0  0
   22.3566   45.5835   -8.9173 H   0  0  0  0  0  0  0  0  0  0  0  0
   24.0080   46.0651   -9.1658 H   0  0  0  0  0  0  0  0  0  0  0  0
   23.8719   47.8315   -7.5003 H   0  0  0  0  0  0  0  0  0  0  0  0
   22.1384   47.7649   -7.4238 H   0  0  0  0  0  0  0  0  0  0  0  0
   24.0477   45.9517   -6.1336 H   0  0  0  0  0  0  0  0  0  0  0  0
   20.5346   46.3282   -7.3257 H   0  0  0  0  0  0  0  0  0  0  0  0
   19.3465   42.5503   -5.7338 H   0  0  0  0  0  0  0  0  0  0  0  0
   23.3688   43.9850   -5.0643 H   0  0  0  0  0  0  0  0  0  0  0  0
   20.2290   40.5085   -5.1869 H   0  0  0  0  0  0  0  0  0  0  0  0
   19.8596   41.2907   -3.6362 H   0  0  0  0  0  0  0  0  0  0  0  0
   21.0625   40.0012   -3.7164 H   0  0  0  0  0  0  0  0  0  0  0  0
   18.5338   42.6887   -7.8082 H   0  0  0  0  0  0  0  0  0  0  0  0
   14.5927   42.5502   -7.0868 H   0  0  0  0  0  0  0  0  0  0  0  0
  1  2  1  0  0  0  0
  1 45  1  0  0  0  0
  1 46  1  0  0  0  0
  1 47  1  0  0  0  0
  2  3  1  0  0  0  0
  2  4  1  0  0  0  0
  2 48  1  0  0  0  0
  3 49  1  0  0  0  0
  3 50  1  0  0  0  0
  3 51  1  0  0  0  0
  4  9  1  0  0  0  0
  4  5  2  0  0  0  0
  5  6  1  0  0  0  0
  5 52  1  0  0  0  0
  6  7  2  0  0  0  0
  6 53  1  0  0  0  0
  7  8  1  0  0  0  0
  7 54  1  0  0  0  0
  8  9  2  0  0  0  0
  8 10  1  0  0  0  0
  9 55  1  0  0  0  0
 10 12  1  0  0  0  0
 10 11  1  0  0  0  0
 10 13  1  0  0  0  0
 11 12  1  0  0  0  0
 11 56  1  0  0  0  0
 11 57  1  0  0  0  0
 12 58  1  0  0  0  0
 12 59  1  0  0  0  0
 13 14  1  0  0  0  0
 13 60  1  0  0  0  0
 14 15  1  0  0  0  0
 14 61  1  0  0  0  0
 14 62  1  0  0  0  0
 15 43  1  6  0  0  0
 15 16  1  0  0  0  0
 15 42  1  0  0  0  0
 16 44  1  1  0  0  0
 16 41  1  0  0  0  0
 16 17  1  0  0  0  0
 17 18  1  0  0  0  0
 17 63  1  0  0  0  0
 17 64  1  0  0  0  0
 18 23  1  0  0  0  0
 18 19  2  0  0  0  0
 19 20  1  0  0  0  0
 19 65  1  0  0  0  0
 20 21  2  0  0  0  0
 20 66  1  0  0  0  0
 21 22  1  0  0  0  0
 21 67  1  0  0  0  0
 22 23  2  0  0  0  0
 22 24  1  0  0  0  0
 23 68  1  0  0  0  0
 24 25  1  0  0  0  0
 25 26  1  0  0  0  0
 25 69  1  0  0  0  0
 25 70  1  0  0  0  0
 26 27  1  0  0  0  0
 26 71  1  0  0  0  0
 26 72  1  0  0  0  0
 27 28  1  0  0  0  0
 27 73  1  0  0  0  0
 27 74  1  0  0  0  0
 28 29  1  0  0  0  0
 28 75  1  0  0  0  0
 28 76  1  0  0  0  0
 29 30  1  0  0  0  0
 29 77  1  0  0  0  0
 30 35  1  0  0  0  0
 30 31  2  0  0  0  0
 31 32  1  0  0  0  0
 31 78  1  0  0  0  0
 32 33  2  0  0  0  0
 32 39  1  0  0  0  0
 33 34  1  0  0  0  0
 33 79  1  0  0  0  0
 34 35  2  0  0  0  0
 34 36  1  0  0  0  0
 35 80  1  0  0  0  0
 36 37  2  0  0  0  0
 36 38  1  0  0  0  0
 38 81  1  0  0  0  0
 38 82  1  0  0  0  0
 38 83  1  0  0  0  0
 39 40  2  0  0  0  0
 39 41  1  0  0  0  0
 41 84  1  0  0  0  0
 42 85  1  0  0  0  0
M  END
>  <s_m_source_file>
BACE_14.smi

>  <i_m_source_file_index>
1

>  <i_lp_mmshare_version>
42013

>  <i_f3d_flags>
0

>  <s_epik_input>
W0NIM11bQ0hdKFtDSDNdKWMxW2NIXVtjSF1bY0hdYyhbY0hdMSlDMihbQ0gyXVtDSDJdMilbTkhdW0NIMl1bQ0BASF0oW09IXSlbQ0BIXShbQ0gyXTMpW05IXUMoPU8pYyhbY0hdYyhbY0hdNClDKD1PKVtDSDNdKVtjSF1jNFtOSF1bQ0gyXVtDSDJdW0NIMl1bQ0gyXU9jKFtjSF01KVtjSF1bY0hdW2NIXWMzNQ==

>  <s_epik_cmdline>
J2VwaWtfcHl0aG9uJywgJy1waCcsICc3LjAnLCAnLXRuJywgJzgnLCAnLW1hJywgJzIwMCcsICctaW1hZScsICc8aW5maWxlLm1hZT4nLCAnLW9tYWUnLCAnPG91dGZpbGUubWFlPic=

>  <r_lp_tautomer_probability>
0.99995

>  <r_epik_Ionization_Penalty>
0.323

>  <r_epik_Ionization_Penalty_Charging>
0

>  <r_epik_Ionization_Penalty_Neutral>
0.323

>  <r_epik_State_Penalty>
0.3176

>  <r_epik_Charging_Adjusted_Penalty>
0.317604

>  <i_epik_Tot_Q>
0

>  <i_epik_Tot_abs_Q>
0

>  <s_lp_Force_Field>
OPLS_2005

>  <r_lp_Energy>
47.6892

>  <b_lp_Chiralities_Consistent>
1

>  <s_lp_Variant>
BACE_14.smi:1-1

>  <chiral flag>
1

>  <version>
0

>  <r_i_glide_lipo>
-0.807694

>  <r_i_glide_hbond>
-1.1636

>  <r_i_glide_metal>
-0

>  <r_i_glide_rewards>
0

>  <r_i_glide_erotb>
0.231492

>  <r_i_glide_esite>
-0.00379964

>  <s_i_glide_gridfile>
second_dock_grid_2

>  <i_i_glide_lignum>
28

>  <i_i_glide_rotatable_bonds>
8

>  <r_i_docking_score>
-2.25028

>  <r_i_glide_ligand_efficiency>
-0.053578

>  <r_i_glide_ligand_efficiency_sa>
-0.186239

>  <r_i_glide_ligand_efficiency_ln>
-0.474976

>  <r_glide_XP_GScore>
-2.56788

>  <r_i_glide_gscore>
-2.56788

>  <r_i_glide_evdw>
-39.8547

>  <r_i_glide_ecoul>
-8.48927

>  <r_i_glide_energy>
-48.3439

>  <r_i_glide_einternal>
4.158

>  <r_i_glide_emodel>
-65.7798

>  <r_glide_XP_HBond>
-1.34839

>  <i_i_glide_confnum>
1

>  <i_i_glide_posenum>
11

>  <r_i_glide_eff_state_penalty>
0.3176

>  <i_glide_XP_PoseRank>
4

>  <chiral flag>
1

$$$$
