BACE_5.smi:1
 OpenBabel10031817133D
Structure written by MMmdl.
 79 80  0  0  1  0  0  0  0  0999 V2000
   31.0518   43.4631   -8.8411 C   0  0  0  0  0  0  0  0  0  0  0  0
   30.1558   44.7025   -8.7251 C   0  0  0  0  0  0  0  0  0  0  0  0
   29.2002   44.8619   -9.9199 C   0  0  0  0  0  0  0  0  0  0  0  0
   28.2550   43.6985  -10.0619 C   0  0  0  0  0  0  0  0  0  0  0  0
   26.8712   43.6445   -9.7180 C   0  0  0  0  0  0  0  0  0  0  0  0
   26.4891   42.3715  -10.0400 C   0  0  0  0  0  0  0  0  0  0  0  0
   27.6117   41.7513  -10.5391 N   0  0  0  0  0  0  0  0  0  0  0  0
   28.6955   42.5497  -10.5569 N   0  0  0  0  0  0  0  0  0  0  0  0
   25.1732   41.6733   -9.9295 C   0  0  0  0  0  0  0  0  0  0  0  0
   24.1763   42.2292  -10.8399 N   0  0  0  0  0  0  0  0  0  0  0  0
   22.9102   42.5574  -10.1867 C   0  0  0  0  0  0  0  0  0  0  0  0
   22.2108   41.3029   -9.6195 C   0  0  2  0  0  0  0  0  0  0  0  0
   20.7439   41.5053   -9.2505 C   0  0  2  0  0  0  0  0  0  0  0  0
   19.9041   40.3252   -9.7812 C   0  0  0  0  0  0  0  0  0  0  0  0
   20.0015   39.0566   -8.9119 C   0  0  1  0  0  0  0  0  0  0  0  0
   19.1911   37.8554   -9.4478 C   0  0  0  0  0  0  0  0  0  0  0  0
   17.6945   38.1162   -9.7355 C   0  0  0  0  0  0  0  0  0  0  0  0
   16.8958   38.6810   -8.5414 C   0  0  0  0  0  0  0  0  0  0  0  0
   15.3719   38.7688   -8.7788 C   0  0  0  0  0  0  0  0  0  0  0  0
   14.9188   39.6212   -9.9852 C   0  0  0  0  0  0  0  0  0  0  0  0
   15.3124   41.1096   -9.9081 C   0  0  0  0  0  0  0  0  0  0  0  0
   14.7702   41.9274  -11.1018 O   0  0  0  0  0  0  0  0  0  0  0  0
   15.1686   43.4262  -11.0924 C   0  0  0  0  0  0  0  0  0  0  0  0
   16.6707   43.6830  -11.2608 C   0  0  0  0  0  0  0  0  0  0  0  0
   17.2799   43.1404  -12.1679 O   0  0  0  0  0  0  0  0  0  0  0  0
   17.2442   44.5002  -10.3635 N   0  0  0  0  0  0  0  0  0  0  0  0
   18.7139   44.6240  -10.2430 C   0  0  2  0  0  0  0  0  0  0  0  0
   19.2617   43.5031   -9.3329 C   0  0  0  0  0  0  0  0  0  0  0  0
   18.7987   43.3172   -8.2196 O   0  0  0  0  0  0  0  0  0  0  0  0
   20.2536   42.7550   -9.8358 N   0  0  0  0  0  0  0  0  0  0  0  0
   19.0512   45.9612   -9.5897 C   0  0  0  0  0  0  0  0  0  0  0  0
   16.3930   45.0749   -9.3414 C   0  0  0  0  0  0  0  0  0  0  0  0
   21.4643   38.6428   -8.7791 C   0  0  0  0  0  0  0  0  0  0  0  0
   22.9501   40.9009   -8.4816 O   0  0  0  0  0  0  0  0  0  0  0  0
   27.6518   40.7965  -10.8662 H   0  0  0  0  0  0  0  0  0  0  0  0
   22.3064   40.5054  -10.3577 H   0  0  0  0  0  0  0  0  0  0  0  0
   20.7040   41.5461   -8.1620 H   0  0  0  0  0  0  0  0  0  0  0  0
   19.6702   39.2877   -7.8995 H   0  0  0  0  0  0  0  0  0  0  0  0
   19.2094   44.6294  -11.2139 H   0  0  0  0  0  0  0  0  0  0  0  0
   31.7134   43.3820   -7.9783 H   0  0  0  0  0  0  0  0  0  0  0  0
   31.6765   43.5079   -9.7336 H   0  0  0  0  0  0  0  0  0  0  0  0
   30.4595   42.5489   -8.8905 H   0  0  0  0  0  0  0  0  0  0  0  0
   30.7866   45.5875   -8.6336 H   0  0  0  0  0  0  0  0  0  0  0  0
   29.5794   44.6374   -7.8014 H   0  0  0  0  0  0  0  0  0  0  0  0
   29.7811   44.9724  -10.8364 H   0  0  0  0  0  0  0  0  0  0  0  0
   28.6330   45.7878   -9.8134 H   0  0  0  0  0  0  0  0  0  0  0  0
   26.2530   44.4245   -9.2983 H   0  0  0  0  0  0  0  0  0  0  0  0
   24.8133   41.7387   -8.9017 H   0  0  0  0  0  0  0  0  0  0  0  0
   25.3141   40.6121  -10.1371 H   0  0  0  0  0  0  0  0  0  0  0  0
   23.9996   41.5674  -11.5890 H   0  0  0  0  0  0  0  0  0  0  0  0
   22.2534   43.0889  -10.8752 H   0  0  0  0  0  0  0  0  0  0  0  0
   23.1082   43.2481   -9.3655 H   0  0  0  0  0  0  0  0  0  0  0  0
   18.8569   40.6245   -9.8261 H   0  0  0  0  0  0  0  0  0  0  0  0
   20.1971   40.1010  -10.8069 H   0  0  0  0  0  0  0  0  0  0  0  0
   19.6605   37.4939  -10.3627 H   0  0  0  0  0  0  0  0  0  0  0  0
   19.2770   37.0336   -8.7368 H   0  0  0  0  0  0  0  0  0  0  0  0
   17.2386   37.1805  -10.0592 H   0  0  0  0  0  0  0  0  0  0  0  0
   17.6058   38.7906  -10.5872 H   0  0  0  0  0  0  0  0  0  0  0  0
   17.0722   38.0524   -7.6686 H   0  0  0  0  0  0  0  0  0  0  0  0
   17.2762   39.6660   -8.2707 H   0  0  0  0  0  0  0  0  0  0  0  0
   14.8977   39.1533   -7.8758 H   0  0  0  0  0  0  0  0  0  0  0  0
   14.9795   37.7593   -8.9011 H   0  0  0  0  0  0  0  0  0  0  0  0
   15.3045   39.1868  -10.9075 H   0  0  0  0  0  0  0  0  0  0  0  0
   13.8342   39.5480  -10.0649 H   0  0  0  0  0  0  0  0  0  0  0  0
   16.3987   41.1912   -9.8727 H   0  0  0  0  0  0  0  0  0  0  0  0
   14.9454   41.5385   -8.9756 H   0  0  0  0  0  0  0  0  0  0  0  0
   14.7993   43.8944  -10.1800 H   0  0  0  0  0  0  0  0  0  0  0  0
   14.6666   43.9445  -11.9094 H   0  0  0  0  0  0  0  0  0  0  0  0
   20.5937   42.9970  -10.7556 H   0  0  0  0  0  0  0  0  0  0  0  0
   20.1301   46.1022   -9.5112 H   0  0  0  0  0  0  0  0  0  0  0  0
   18.6355   46.0434   -8.5848 H   0  0  0  0  0  0  0  0  0  0  0  0
   18.6616   46.7953  -10.1742 H   0  0  0  0  0  0  0  0  0  0  0  0
   16.8832   45.8493   -8.7544 H   0  0  0  0  0  0  0  0  0  0  0  0
   16.0459   44.3121   -8.6435 H   0  0  0  0  0  0  0  0  0  0  0  0
   15.5263   45.5684   -9.7831 H   0  0  0  0  0  0  0  0  0  0  0  0
   21.5747   37.7502   -8.1638 H   0  0  0  0  0  0  0  0  0  0  0  0
   22.0650   39.4206   -8.3089 H   0  0  0  0  0  0  0  0  0  0  0  0
   21.9093   38.4263   -9.7510 H   0  0  0  0  0  0  0  0  0  0  0  0
   23.7567   40.5040   -8.7729 H   0  0  0  0  0  0  0  0  0  0  0  0
  1  2  1  0  0  0  0
  1 40  1  0  0  0  0
  1 41  1  0  0  0  0
  1 42  1  0  0  0  0
  2  3  1  0  0  0  0
  2 43  1  0  0  0  0
  2 44  1  0  0  0  0
  3 45  1  0  0  0  0
  3 46  1  0  0  0  0
  3  4  1  0  0  0  0
  4  8  2  0  0  0  0
  4  5  1  0  0  0  0
  5  6  2  0  0  0  0
  5 47  1  0  0  0  0
  6  7  1  0  0  0  0
  6  9  1  0  0  0  0
  7  8  1  0  0  0  0
  7 35  1  0  0  0  0
  9 10  1  0  0  0  0
  9 48  1  0  0  0  0
  9 49  1  0  0  0  0
 10 11  1  0  0  0  0
 10 50  1  0  0  0  0
 11 12  1  0  0  0  0
 11 51  1  0  0  0  0
 11 52  1  0  0  0  0
 12 36  1  6  0  0  0
 12 13  1  0  0  0  0
 12 34  1  0  0  0  0
 13 37  1  1  0  0  0
 13 30  1  0  0  0  0
 13 14  1  0  0  0  0
 14 15  1  0  0  0  0
 14 53  1  0  0  0  0
 14 54  1  0  0  0  0
 15 38  1  1  0  0  0
 15 16  1  0  0  0  0
 15 33  1  0  0  0  0
 16 17  1  0  0  0  0
 16 55  1  0  0  0  0
 16 56  1  0  0  0  0
 17 18  1  0  0  0  0
 17 57  1  0  0  0  0
 17 58  1  0  0  0  0
 18 19  1  0  0  0  0
 18 59  1  0  0  0  0
 18 60  1  0  0  0  0
 19 20  1  0  0  0  0
 19 61  1  0  0  0  0
 19 62  1  0  0  0  0
 20 21  1  0  0  0  0
 20 63  1  0  0  0  0
 20 64  1  0  0  0  0
 21 22  1  0  0  0  0
 21 65  1  0  0  0  0
 21 66  1  0  0  0  0
 22 23  1  0  0  0  0
 23 24  1  0  0  0  0
 23 67  1  0  0  0  0
 23 68  1  0  0  0  0
 24 25  2  0  0  0  0
 24 26  1  0  0  0  0
 26 27  1  0  0  0  0
 26 32  1  0  0  0  0
 27 39  1  6  0  0  0
 27 28  1  0  0  0  0
 27 31  1  0  0  0  0
 28 29  2  0  0  0  0
 28 30  1  0  0  0  0
 30 69  1  0  0  0  0
 31 70  1  0  0  0  0
 31 71  1  0  0  0  0
 31 72  1  0  0  0  0
 32 73  1  0  0  0  0
 32 74  1  0  0  0  0
 32 75  1  0  0  0  0
 33 76  1  0  0  0  0
 33 77  1  0  0  0  0
 33 78  1  0  0  0  0
 34 79  1  0  0  0  0
M  END
>  <s_m_source_file>
BACE_5.smi

>  <i_m_source_file_index>
1

>  <i_lp_mmshare_version>
42013

>  <i_f3d_flags>
0

>  <s_epik_input>
W0NIM11bQ0gyXVtDSDJdYzFbY0hdYyhuW25IXTEpW0NIMl1bTkhdW0NIMl1bQ0BASF0oW09IXSlbQ0BASF0yW0NIMl1bQ0BIXShbQ0gzXSlbQ0gyXVtDSDJdW0NIMl1bQ0gyXVtDSDJdW0NIMl1PW0NIMl1DKD1PKU4oW0NIM10pW0NAQEhdKFtDSDNdKUMoPU8pW05IXTI=

>  <s_epik_cmdline>
J2VwaWtfcHl0aG9uJywgJy1waCcsICc3LjAnLCAnLXRuJywgJzgnLCAnLW1hJywgJzIwMCcsICctaW1hZScsICc8aW5maWxlLm1hZT4nLCAnLW9tYWUnLCAnPG91dGZpbGUubWFlPic=

>  <r_lp_tautomer_probability>
0.5

>  <r_epik_Ionization_Penalty>
0.9876

>  <r_epik_Ionization_Penalty_Charging>
0

>  <r_epik_Ionization_Penalty_Neutral>
0.9876

>  <r_epik_State_Penalty>
1.6104

>  <r_epik_Charging_Adjusted_Penalty>
1.61044

>  <i_epik_Tot_Q>
0

>  <i_epik_Tot_abs_Q>
0

>  <s_lp_Force_Field>
OPLS_2005

>  <r_lp_Energy>
32.3926

>  <b_lp_Chiralities_Consistent>
1

>  <s_lp_Variant>
BACE_5.smi:1-3

>  <chiral flag>
1

>  <version>
0

>  <r_i_glide_lipo>
-0.879821

>  <r_i_glide_hbond>
-0.816235

>  <r_i_glide_metal>
-0

>  <r_i_glide_rewards>
-0.14092

>  <r_i_glide_erotb>
0.52871

>  <r_i_glide_esite>
-0.0560036

>  <s_i_glide_gridfile>
second_dock_grid_2

>  <i_i_glide_lignum>
10

>  <i_i_glide_rotatable_bonds>
8

>  <r_i_docking_score>
-2.77862

>  <r_i_glide_ligand_efficiency>
-0.0817243

>  <r_i_glide_ligand_efficiency_sa>
-0.264755

>  <r_i_glide_ligand_efficiency_ln>
-0.613876

>  <r_glide_XP_GScore>
-4.38902

>  <r_i_glide_gscore>
-4.38902

>  <r_i_glide_evdw>
-33.3354

>  <r_i_glide_ecoul>
-11.0052

>  <r_i_glide_energy>
-44.3406

>  <r_i_glide_einternal>
8.79142

>  <r_i_glide_emodel>
-59.3262

>  <r_glide_XP_HBond>
-0.9975

>  <i_i_glide_confnum>
1

>  <i_i_glide_posenum>
1

>  <r_i_glide_eff_state_penalty>
1.6104

>  <i_glide_XP_PoseRank>
3

>  <chiral flag>
1

$$$$
