BACE_11.smi:1
 OpenBabel10031817133D
Structure written by MMmdl.
 80 82  0  0  1  0  0  0  0  0999 V2000
   28.5221   44.3498  -13.2554 C   0  0  0  0  0  0  0  0  0  0  0  0
   27.9206   44.1596  -11.8492 C   0  0  1  0  0  0  0  0  0  0  0  0
   26.3744   44.0847  -11.7952 C   0  0  0  0  0  0  0  0  0  0  0  0
   25.7044   44.8086  -12.5327 O   0  0  0  0  0  0  0  0  0  0  0  0
   25.8092   43.2773  -10.8787 N   0  0  0  0  0  0  0  0  0  0  0  0
   24.4083   43.2628  -10.4474 C   0  0  1  0  0  0  0  0  0  0  0  0
   24.0856   44.4953   -9.5592 C   0  0  0  0  0  0  0  0  0  0  0  0
   24.9399   44.5565   -8.3071 C   0  0  0  0  0  0  0  0  0  0  0  0
   24.4167   44.1010   -7.0854 C   0  0  0  0  0  0  0  0  0  0  0  0
   25.2249   44.1116   -5.9375 C   0  0  0  0  0  0  0  0  0  0  0  0
   26.5630   44.5401   -6.0038 C   0  0  0  0  0  0  0  0  0  0  0  0
   27.1030   44.9944   -7.2321 C   0  0  0  0  0  0  0  0  0  0  0  0
   26.2679   45.0340   -8.3620 C   0  0  0  0  0  0  0  0  0  0  0  0
   28.4069   45.3994   -7.4057 O   0  0  0  0  0  0  0  0  0  0  0  0
   29.3230   45.2049   -6.3405 C   0  0  0  0  0  0  0  0  0  0  0  0
   30.7277   45.6394   -6.7858 C   0  0  0  0  0  0  0  0  0  0  0  0
   31.4467   44.6551   -7.7335 C   0  0  0  0  0  0  0  0  0  0  0  0
   31.4965   45.0642   -9.2253 C   0  0  0  0  0  0  0  0  0  0  0  0
   30.2045   44.8872  -10.0585 C   0  0  0  0  0  0  0  0  0  0  0  0
   29.7744   43.4261  -10.3011 C   0  0  0  0  0  0  0  0  0  0  0  0
   30.4367   42.5304   -9.7733 O   0  0  0  0  0  0  0  0  0  0  0  0
   28.6977   43.1503  -11.0870 N   0  0  0  0  0  0  0  0  0  0  0  0
   28.3506   41.7424  -11.3199 C   0  0  0  0  0  0  0  0  0  0  0  0
   23.4039   42.9962  -11.6040 C   0  0  1  0  0  0  0  0  0  0  0  0
   22.2524   42.0451  -11.2079 C   0  0  0  0  0  0  0  0  0  0  0  0
   21.6585   41.4245  -12.3998 N   0  0  0  0  0  0  0  0  0  0  0  0
   20.9714   40.1545  -12.1572 C   0  0  0  0  0  0  0  0  0  0  0  0
   19.8004   40.2097  -11.1912 C   0  0  0  0  0  0  0  0  0  0  0  0
   18.7977   41.1952  -11.3094 C   0  0  0  0  0  0  0  0  0  0  0  0
   17.7029   41.1993  -10.4229 C   0  0  0  0  0  0  0  0  0  0  0  0
   17.6024   40.2155   -9.4193 C   0  0  0  0  0  0  0  0  0  0  0  0
   18.6010   39.2234   -9.2919 C   0  0  0  0  0  0  0  0  0  0  0  0
   19.6923   39.2261  -10.1865 C   0  0  0  0  0  0  0  0  0  0  0  0
   18.5102   38.1299   -8.2332 C   0  0  0  0  0  0  0  0  0  0  0  0
   17.6131   36.9799   -8.7120 C   0  0  0  0  0  0  0  0  0  0  0  0
   18.0750   38.6510   -6.8509 C   0  0  0  0  0  0  0  0  0  0  0  0
   22.8603   44.2234  -12.0400 O   0  0  0  0  0  0  0  0  0  0  0  0
   28.0589   45.1235  -11.3675 H   0  0  0  0  0  0  0  0  0  0  0  0
   24.3703   42.3941   -9.7907 H   0  0  0  0  0  0  0  0  0  0  0  0
   23.9500   42.5673  -12.4395 H   0  0  0  0  0  0  0  0  0  0  0  0
   27.9513   45.0612  -13.8563 H   0  0  0  0  0  0  0  0  0  0  0  0
   28.5517   43.4038  -13.7955 H   0  0  0  0  0  0  0  0  0  0  0  0
   29.5449   44.7199  -13.2003 H   0  0  0  0  0  0  0  0  0  0  0  0
   26.4449   42.7153  -10.3325 H   0  0  0  0  0  0  0  0  0  0  0  0
   24.2245   45.4217  -10.1199 H   0  0  0  0  0  0  0  0  0  0  0  0
   23.0337   44.4727   -9.2696 H   0  0  0  0  0  0  0  0  0  0  0  0
   23.4006   43.7364   -7.0245 H   0  0  0  0  0  0  0  0  0  0  0  0
   24.8176   43.7498   -5.0031 H   0  0  0  0  0  0  0  0  0  0  0  0
   27.1540   44.5024   -5.1028 H   0  0  0  0  0  0  0  0  0  0  0  0
   26.6711   45.3982   -9.2938 H   0  0  0  0  0  0  0  0  0  0  0  0
   29.0155   45.8145   -5.4902 H   0  0  0  0  0  0  0  0  0  0  0  0
   29.3336   44.1614   -6.0188 H   0  0  0  0  0  0  0  0  0  0  0  0
   30.7012   46.6424   -7.2095 H   0  0  0  0  0  0  0  0  0  0  0  0
   31.3325   45.7258   -5.8823 H   0  0  0  0  0  0  0  0  0  0  0  0
   32.4839   44.5976   -7.3992 H   0  0  0  0  0  0  0  0  0  0  0  0
   31.0662   43.6424   -7.5976 H   0  0  0  0  0  0  0  0  0  0  0  0
   31.8178   46.1020   -9.2947 H   0  0  0  0  0  0  0  0  0  0  0  0
   32.2890   44.4913   -9.7064 H   0  0  0  0  0  0  0  0  0  0  0  0
   29.3868   45.4423   -9.6036 H   0  0  0  0  0  0  0  0  0  0  0  0
   30.3793   45.3436  -11.0327 H   0  0  0  0  0  0  0  0  0  0  0  0
   27.8388   41.3425  -10.4428 H   0  0  0  0  0  0  0  0  0  0  0  0
   29.2320   41.1243  -11.5133 H   0  0  0  0  0  0  0  0  0  0  0  0
   27.6920   41.6138  -12.1785 H   0  0  0  0  0  0  0  0  0  0  0  0
   22.6554   41.2552  -10.5710 H   0  0  0  0  0  0  0  0  0  0  0  0
   21.4950   42.5636  -10.6103 H   0  0  0  0  0  0  0  0  0  0  0  0
   22.4398   41.2269  -13.0271 H   0  0  0  0  0  0  0  0  0  0  0  0
   20.6000   39.7634  -13.1019 H   0  0  0  0  0  0  0  0  0  0  0  0
   21.6834   39.4150  -11.7903 H   0  0  0  0  0  0  0  0  0  0  0  0
   18.8738   41.9494  -12.0797 H   0  0  0  0  0  0  0  0  0  0  0  0
   16.9380   41.9550  -10.5121 H   0  0  0  0  0  0  0  0  0  0  0  0
   16.7532   40.2241   -8.7543 H   0  0  0  0  0  0  0  0  0  0  0  0
   20.4533   38.4636  -10.1020 H   0  0  0  0  0  0  0  0  0  0  0  0
   19.5167   37.7310   -8.1050 H   0  0  0  0  0  0  0  0  0  0  0  0
   17.9531   36.5886   -9.6709 H   0  0  0  0  0  0  0  0  0  0  0  0
   16.5798   37.3076   -8.8266 H   0  0  0  0  0  0  0  0  0  0  0  0
   17.6215   36.1546   -8.0018 H   0  0  0  0  0  0  0  0  0  0  0  0
   18.7237   39.4599   -6.5101 H   0  0  0  0  0  0  0  0  0  0  0  0
   18.1229   37.8543   -6.1076 H   0  0  0  0  0  0  0  0  0  0  0  0
   17.0496   39.0204   -6.8530 H   0  0  0  0  0  0  0  0  0  0  0  0
   23.5902   44.7524  -12.3386 H   0  0  0  0  0  0  0  0  0  0  0  0
  1  2  1  0  0  0  0
  1 41  1  0  0  0  0
  1 42  1  0  0  0  0
  1 43  1  0  0  0  0
  2 38  1  1  0  0  0
  2 22  1  0  0  0  0
  2  3  1  0  0  0  0
  3  4  2  0  0  0  0
  3  5  1  0  0  0  0
  5  6  1  0  0  0  0
  5 44  1  0  0  0  0
  6 39  1  1  0  0  0
  6  7  1  0  0  0  0
  6 24  1  0  0  0  0
  7  8  1  0  0  0  0
  7 45  1  0  0  0  0
  7 46  1  0  0  0  0
  8 13  1  0  0  0  0
  8  9  2  0  0  0  0
  9 10  1  0  0  0  0
  9 47  1  0  0  0  0
 10 11  2  0  0  0  0
 10 48  1  0  0  0  0
 11 12  1  0  0  0  0
 11 49  1  0  0  0  0
 12 13  2  0  0  0  0
 12 14  1  0  0  0  0
 13 50  1  0  0  0  0
 14 15  1  0  0  0  0
 15 16  1  0  0  0  0
 15 51  1  0  0  0  0
 15 52  1  0  0  0  0
 16 17  1  0  0  0  0
 16 53  1  0  0  0  0
 16 54  1  0  0  0  0
 17 18  1  0  0  0  0
 17 55  1  0  0  0  0
 17 56  1  0  0  0  0
 18 19  1  0  0  0  0
 18 57  1  0  0  0  0
 18 58  1  0  0  0  0
 19 20  1  0  0  0  0
 19 59  1  0  0  0  0
 19 60  1  0  0  0  0
 20 21  2  0  0  0  0
 20 22  1  0  0  0  0
 22 23  1  0  0  0  0
 23 61  1  0  0  0  0
 23 62  1  0  0  0  0
 23 63  1  0  0  0  0
 24 40  1  6  0  0  0
 24 25  1  0  0  0  0
 24 37  1  0  0  0  0
 25 26  1  0  0  0  0
 25 64  1  0  0  0  0
 25 65  1  0  0  0  0
 26 27  1  0  0  0  0
 26 66  1  0  0  0  0
 27 28  1  0  0  0  0
 27 67  1  0  0  0  0
 27 68  1  0  0  0  0
 28 33  1  0  0  0  0
 28 29  2  0  0  0  0
 29 30  1  0  0  0  0
 29 69  1  0  0  0  0
 30 31  2  0  0  0  0
 30 70  1  0  0  0  0
 31 32  1  0  0  0  0
 31 71  1  0  0  0  0
 32 33  2  0  0  0  0
 32 34  1  0  0  0  0
 33 72  1  0  0  0  0
 34 35  1  0  0  0  0
 34 36  1  0  0  0  0
 34 73  1  0  0  0  0
 35 74  1  0  0  0  0
 35 75  1  0  0  0  0
 35 76  1  0  0  0  0
 36 77  1  0  0  0  0
 36 78  1  0  0  0  0
 36 79  1  0  0  0  0
 37 80  1  0  0  0  0
M  END
>  <s_m_source_file>
BACE_11.smi

>  <i_m_source_file_index>
1

>  <i_lp_mmshare_version>
42013

>  <i_f3d_flags>
0

>  <s_epik_input>
YzEyW2NIXVtjSF1bY0hdYyhbY0hdMilPW0NIMl1bQ0gyXVtDSDJdW0NIMl1bQ0gyXUMoPU8pTihbQ0gzXSlbQ0BASF0oW0NIM10pQyg9TylbTkhdW0NAQEhdKFtDSDJdMSlbQ0BIXShbT0hdKVtDSDJdW05IXVtDSDJdYzNbY0hdW2NIXVtjSF1jKFtjSF0zKVtDSF0oW0NIM10pW0NIM10=

>  <s_epik_cmdline>
J2VwaWtfcHl0aG9uJywgJy1waCcsICc3LjAnLCAnLXRuJywgJzgnLCAnLW1hJywgJzIwMCcsICctaW1hZScsICc8aW5maWxlLm1hZT4nLCAnLW9tYWUnLCAnPG91dGZpbGUubWFlPic=

>  <r_lp_tautomer_probability>
1

>  <r_epik_Ionization_Penalty>
1.9888

>  <r_epik_Ionization_Penalty_Charging>
0

>  <r_epik_Ionization_Penalty_Neutral>
1.9888

>  <r_epik_State_Penalty>
2.1166

>  <r_epik_Charging_Adjusted_Penalty>
2.11661

>  <i_epik_Tot_Q>
0

>  <i_epik_Tot_abs_Q>
0

>  <s_lp_Force_Field>
OPLS_2005

>  <r_lp_Energy>
44.3635

>  <b_lp_Chiralities_Consistent>
1

>  <s_lp_Variant>
BACE_11.smi:1-2

>  <chiral flag>
1

>  <version>
0

>  <r_i_glide_lipo>
-0.657211

>  <r_i_glide_hbond>
-0.267375

>  <r_i_glide_metal>
-0

>  <r_i_glide_rewards>
-0.382084

>  <r_i_glide_erotb>
0.394218

>  <r_i_glide_esite>
0

>  <s_i_glide_gridfile>
second_dock_grid_2

>  <i_i_glide_lignum>
23

>  <i_i_glide_rotatable_bonds>
7

>  <r_i_docking_score>
-0.592925

>  <r_i_glide_ligand_efficiency>
-0.016025

>  <r_i_glide_ligand_efficiency_sa>
-0.0533989

>  <r_i_glide_ligand_efficiency_ln>
-0.128592

>  <r_glide_XP_GScore>
-2.70953

>  <r_i_glide_gscore>
-2.70953

>  <r_i_glide_evdw>
-35.2603

>  <r_i_glide_ecoul>
-7.69359

>  <r_i_glide_energy>
-42.9539

>  <r_i_glide_einternal>
1.4208

>  <r_i_glide_emodel>
-52.3059

>  <r_glide_XP_HBond>
-0.9975

>  <i_i_glide_confnum>
1

>  <i_i_glide_posenum>
5

>  <r_i_glide_eff_state_penalty>
2.1166

>  <i_glide_XP_PoseRank>
3

>  <chiral flag>
1

$$$$
