BACE_14.smi:1
 OpenBabel10031817133D
Structure written by MMmdl.
 86 90  0  0  1  0  0  0  0  0999 V2000
   28.3011   46.2635   -8.6040 C   0  0  0  0  0  0  0  0  0  0  0  0
   28.3043   44.8054   -8.1246 C   0  0  0  0  0  0  0  0  0  0  0  0
   27.5540   44.6465   -6.7912 C   0  0  0  0  0  0  0  0  0  0  0  0
   27.7787   43.8660   -9.2056 C   0  0  0  0  0  0  0  0  0  0  0  0
   28.6771   43.0231   -9.8952 C   0  0  0  0  0  0  0  0  0  0  0  0
   28.2070   42.1521  -10.8976 C   0  0  0  0  0  0  0  0  0  0  0  0
   26.8396   42.1276  -11.2169 C   0  0  0  0  0  0  0  0  0  0  0  0
   25.9307   42.9713  -10.5430 C   0  0  0  0  0  0  0  0  0  0  0  0
   26.4082   43.8358   -9.5356 C   0  0  0  0  0  0  0  0  0  0  0  0
   24.4804   42.9411  -10.9055 C   0  0  0  0  0  0  0  0  0  0  0  0
   24.0143   43.3498  -12.2854 C   0  0  0  0  0  0  0  0  0  0  0  0
   23.6304   44.1860  -11.0879 C   0  0  0  0  0  0  0  0  0  0  0  0
   23.7602   41.7642  -10.3718 N   0  3  0  0  0  0  0  0  0  0  0  0
   23.2568   41.9247   -8.9877 C   0  0  0  0  0  0  0  0  0  0  0  0
   22.5095   40.6643   -8.4964 C   0  0  2  0  0  0  0  0  0  0  0  0
   21.5174   40.9179   -7.3228 C   0  0  2  0  0  0  0  0  0  0  0  0
   20.7513   39.6467   -6.8715 C   0  0  0  0  0  0  0  0  0  0  0  0
   19.6839   39.1662   -7.8480 C   0  0  0  0  0  0  0  0  0  0  0  0
   20.0387   38.3596   -8.9458 C   0  0  0  0  0  0  0  0  0  0  0  0
   19.0515   37.9403   -9.8556 C   0  0  0  0  0  0  0  0  0  0  0  0
   17.7029   38.2829   -9.6540 C   0  0  0  0  0  0  0  0  0  0  0  0
   17.3295   39.0880   -8.5533 C   0  0  0  0  0  0  0  0  0  0  0  0
   18.3295   39.5221   -7.6609 C   0  0  0  0  0  0  0  0  0  0  0  0
   16.0367   39.4886   -8.2941 O   0  0  0  0  0  0  0  0  0  0  0  0
   15.1054   39.5657   -9.3706 C   0  0  0  0  0  0  0  0  0  0  0  0
   15.5093   40.6655  -10.3732 C   0  0  0  0  0  0  0  0  0  0  0  0
   15.6052   42.0557   -9.7202 C   0  0  0  0  0  0  0  0  0  0  0  0
   16.3772   43.0635  -10.5884 C   0  0  0  0  0  0  0  0  0  0  0  0
   16.5017   44.3724   -9.9592 N   0  0  0  0  0  0  0  0  0  0  0  0
   17.4049   44.6289   -8.9134 C   0  0  0  0  0  0  0  0  0  0  0  0
   18.3193   43.6609   -8.4271 C   0  0  0  0  0  0  0  0  0  0  0  0
   19.1937   43.9681   -7.3567 C   0  0  0  0  0  0  0  0  0  0  0  0
   19.1334   45.2500   -6.7698 C   0  0  0  0  0  0  0  0  0  0  0  0
   18.2457   46.2350   -7.2575 C   0  0  0  0  0  0  0  0  0  0  0  0
   17.3841   45.9120   -8.3271 C   0  0  0  0  0  0  0  0  0  0  0  0
   18.1863   47.5632   -6.5920 C   0  0  0  0  0  0  0  0  0  0  0  0
   18.4578   47.7414   -5.4057 O   0  0  0  0  0  0  0  0  0  0  0  0
   17.7759   48.7617   -7.4437 C   0  0  0  0  0  0  0  0  0  0  0  0
   20.1539   42.9449   -6.8050 C   0  0  0  0  0  0  0  0  0  0  0  0
   20.5842   43.0533   -5.6566 O   0  0  0  0  0  0  0  0  0  0  0  0
   20.5611   41.9820   -7.6519 N   0  0  0  0  0  0  0  0  0  0  0  0
   23.4932   39.7502   -8.0388 O   0  0  0  0  0  0  0  0  0  0  0  0
   21.9679   40.2212   -9.3313 H   0  0  0  0  0  0  0  0  0  0  0  0
   22.1289   41.2393   -6.4769 H   0  0  0  0  0  0  0  0  0  0  0  0
   28.7374   46.9202   -7.8519 H   0  0  0  0  0  0  0  0  0  0  0  0
   27.2913   46.6172   -8.8086 H   0  0  0  0  0  0  0  0  0  0  0  0
   28.8861   46.3760   -9.5167 H   0  0  0  0  0  0  0  0  0  0  0  0
   29.3447   44.5344   -7.9340 H   0  0  0  0  0  0  0  0  0  0  0  0
   28.0116   45.2620   -6.0173 H   0  0  0  0  0  0  0  0  0  0  0  0
   27.5765   43.6152   -6.4412 H   0  0  0  0  0  0  0  0  0  0  0  0
   26.5097   44.9468   -6.8718 H   0  0  0  0  0  0  0  0  0  0  0  0
   29.7326   43.0369   -9.6594 H   0  0  0  0  0  0  0  0  0  0  0  0
   28.8953   41.5055  -11.4192 H   0  0  0  0  0  0  0  0  0  0  0  0
   26.4912   41.4554  -11.9876 H   0  0  0  0  0  0  0  0  0  0  0  0
   25.7184   44.4858   -9.0216 H   0  0  0  0  0  0  0  0  0  0  0  0
   24.7582   43.7759  -12.9599 H   0  0  0  0  0  0  0  0  0  0  0  0
   23.2195   42.7877  -12.7657 H   0  0  0  0  0  0  0  0  0  0  0  0
   22.5768   44.1666  -10.8187 H   0  0  0  0  0  0  0  0  0  0  0  0
   24.1174   45.1539  -10.9858 H   0  0  0  0  0  0  0  0  0  0  0  0
   24.3990   40.9820  -10.4007 H   0  0  0  0  0  0  0  0  0  0  0  0
   22.5868   42.7820   -8.9798 H   0  0  0  0  0  0  0  0  0  0  0  0
   24.0733   42.1755   -8.3105 H   0  0  0  0  0  0  0  0  0  0  0  0
   21.4430   38.8263   -6.6689 H   0  0  0  0  0  0  0  0  0  0  0  0
   20.2664   39.8531   -5.9167 H   0  0  0  0  0  0  0  0  0  0  0  0
   21.0654   38.0615   -9.0955 H   0  0  0  0  0  0  0  0  0  0  0  0
   19.3284   37.3505  -10.7151 H   0  0  0  0  0  0  0  0  0  0  0  0
   16.9748   37.9239  -10.3618 H   0  0  0  0  0  0  0  0  0  0  0  0
   18.0436   40.1512   -6.8341 H   0  0  0  0  0  0  0  0  0  0  0  0
   14.9760   38.6003   -9.8601 H   0  0  0  0  0  0  0  0  0  0  0  0
   14.1312   39.8076   -8.9450 H   0  0  0  0  0  0  0  0  0  0  0  0
   16.4638   40.4102  -10.8312 H   0  0  0  0  0  0  0  0  0  0  0  0
   14.7873   40.6930  -11.1886 H   0  0  0  0  0  0  0  0  0  0  0  0
   14.6010   42.4264   -9.5075 H   0  0  0  0  0  0  0  0  0  0  0  0
   16.0987   41.9683   -8.7514 H   0  0  0  0  0  0  0  0  0  0  0  0
   17.3670   42.6798  -10.8392 H   0  0  0  0  0  0  0  0  0  0  0  0
   15.8567   43.1952  -11.5373 H   0  0  0  0  0  0  0  0  0  0  0  0
   15.8229   45.0793  -10.2004 H   0  0  0  0  0  0  0  0  0  0  0  0
   18.3406   42.6722   -8.8575 H   0  0  0  0  0  0  0  0  0  0  0  0
   19.7831   45.4880   -5.9380 H   0  0  0  0  0  0  0  0  0  0  0  0
   16.6871   46.6502   -8.6959 H   0  0  0  0  0  0  0  0  0  0  0  0
   16.7137   48.7214   -7.6853 H   0  0  0  0  0  0  0  0  0  0  0  0
   18.3481   48.7832   -8.3738 H   0  0  0  0  0  0  0  0  0  0  0  0
   17.9704   49.6894   -6.9031 H   0  0  0  0  0  0  0  0  0  0  0  0
   20.1227   41.9455   -8.5578 H   0  0  0  0  0  0  0  0  0  0  0  0
   23.8558   39.2483   -8.7626 H   0  0  0  0  0  0  0  0  0  0  0  0
   22.9872   41.5592  -10.9899 H   0  0  0  0  0  0  0  0  0  0  0  0
  1  2  1  0  0  0  0
  1 45  1  0  0  0  0
  1 46  1  0  0  0  0
  1 47  1  0  0  0  0
  2  3  1  0  0  0  0
  2  4  1  0  0  0  0
  2 48  1  0  0  0  0
  3 49  1  0  0  0  0
  3 50  1  0  0  0  0
  3 51  1  0  0  0  0
  4  9  1  0  0  0  0
  4  5  2  0  0  0  0
  5  6  1  0  0  0  0
  5 52  1  0  0  0  0
  6  7  2  0  0  0  0
  6 53  1  0  0  0  0
  7  8  1  0  0  0  0
  7 54  1  0  0  0  0
  8  9  2  0  0  0  0
  8 10  1  0  0  0  0
  9 55  1  0  0  0  0
 10 12  1  0  0  0  0
 10 11  1  0  0  0  0
 10 13  1  0  0  0  0
 11 12  1  0  0  0  0
 11 56  1  0  0  0  0
 11 57  1  0  0  0  0
 12 58  1  0  0  0  0
 12 59  1  0  0  0  0
 13 14  1  0  0  0  0
 13 60  1  0  0  0  0
 13 86  1  0  0  0  0
 14 15  1  0  0  0  0
 14 61  1  0  0  0  0
 14 62  1  0  0  0  0
 15 43  1  6  0  0  0
 15 16  1  0  0  0  0
 15 42  1  0  0  0  0
 16 44  1  1  0  0  0
 16 41  1  0  0  0  0
 16 17  1  0  0  0  0
 17 18  1  0  0  0  0
 17 63  1  0  0  0  0
 17 64  1  0  0  0  0
 18 23  1  0  0  0  0
 18 19  2  0  0  0  0
 19 20  1  0  0  0  0
 19 65  1  0  0  0  0
 20 21  2  0  0  0  0
 20 66  1  0  0  0  0
 21 22  1  0  0  0  0
 21 67  1  0  0  0  0
 22 23  2  0  0  0  0
 22 24  1  0  0  0  0
 23 68  1  0  0  0  0
 24 25  1  0  0  0  0
 25 26  1  0  0  0  0
 25 69  1  0  0  0  0
 25 70  1  0  0  0  0
 26 27  1  0  0  0  0
 26 71  1  0  0  0  0
 26 72  1  0  0  0  0
 27 28  1  0  0  0  0
 27 73  1  0  0  0  0
 27 74  1  0  0  0  0
 28 29  1  0  0  0  0
 28 75  1  0  0  0  0
 28 76  1  0  0  0  0
 29 30  1  0  0  0  0
 29 77  1  0  0  0  0
 30 35  1  0  0  0  0
 30 31  2  0  0  0  0
 31 32  1  0  0  0  0
 31 78  1  0  0  0  0
 32 33  2  0  0  0  0
 32 39  1  0  0  0  0
 33 34  1  0  0  0  0
 33 79  1  0  0  0  0
 34 35  2  0  0  0  0
 34 36  1  0  0  0  0
 35 80  1  0  0  0  0
 36 37  2  0  0  0  0
 36 38  1  0  0  0  0
 38 81  1  0  0  0  0
 38 82  1  0  0  0  0
 38 83  1  0  0  0  0
 39 40  2  0  0  0  0
 39 41  1  0  0  0  0
 41 84  1  0  0  0  0
 42 85  1  0  0  0  0
M  CHG  1  13   1
M  END
>  <s_m_source_file>
BACE_14.smi

>  <i_m_source_file_index>
1

>  <i_lp_mmshare_version>
42013

>  <i_f3d_flags>
0

>  <s_epik_input>
W0NIM11bQ0hdKFtDSDNdKWMxW2NIXVtjSF1bY0hdYyhbY0hdMSlDMihbQ0gyXVtDSDJdMilbTkhdW0NIMl1bQ0BASF0oW09IXSlbQ0BIXShbQ0gyXTMpW05IXUMoPU8pYyhbY0hdYyhbY0hdNClDKD1PKVtDSDNdKVtjSF1jNFtOSF1bQ0gyXVtDSDJdW0NIMl1bQ0gyXU9jKFtjSF01KVtjSF1bY0hdW2NIXWMzNQ==

>  <s_epik_cmdline>
J2VwaWtfcHl0aG9uJywgJy1waCcsICc3LjAnLCAnLXRuJywgJzgnLCAnLW1hJywgJzIwMCcsICctaW1hZScsICc8aW5maWxlLm1hZT4nLCAnLW9tYWUnLCAnPG91dGZpbGUubWFlPic=

>  <r_lp_tautomer_probability>
0.99995

>  <r_epik_Ionization_Penalty>
0.5137

>  <r_epik_Ionization_Penalty_Charging>
0.5137

>  <r_epik_Ionization_Penalty_Neutral>
0

>  <r_epik_State_Penalty>
0.5212

>  <r_epik_Charging_Adjusted_Penalty>
1.03485

>  <i_epik_Tot_Q>
1

>  <i_epik_Tot_abs_Q>
1

>  <s_lp_Force_Field>
OPLS_2005

>  <r_lp_Energy>
46.5551

>  <b_lp_Chiralities_Consistent>
1

>  <s_lp_Variant>
BACE_14.smi:1-2

>  <chiral flag>
1

>  <version>
0

>  <r_i_glide_lipo>
-0.49017

>  <r_i_glide_hbond>
-0.608

>  <r_i_glide_metal>
-0

>  <r_i_glide_rewards>
0

>  <r_i_glide_erotb>
0.229446

>  <r_i_glide_esite>
-0.0798175

>  <s_i_glide_gridfile>
second_dock_grid_2

>  <i_i_glide_lignum>
29

>  <i_i_glide_rotatable_bonds>
8

>  <r_i_docking_score>
-1.95439

>  <r_i_glide_ligand_efficiency>
-0.0465332

>  <r_i_glide_ligand_efficiency_sa>
-0.161751

>  <r_i_glide_ligand_efficiency_ln>
-0.412522

>  <r_glide_XP_GScore>
-2.47559

>  <r_i_glide_gscore>
-2.47559

>  <r_i_glide_evdw>
-44.8994

>  <r_i_glide_ecoul>
-9.66498

>  <r_i_glide_energy>
-54.5644

>  <r_i_glide_einternal>
2.72304

>  <r_i_glide_emodel>
-78.3496

>  <r_glide_XP_HBond>
-1.23713

>  <i_i_glide_confnum>
1

>  <i_i_glide_posenum>
67

>  <r_i_glide_eff_state_penalty>
0.5212

>  <i_glide_XP_PoseRank>
8

>  <chiral flag>
1

$$$$
