BACE_13.smi:1
 OpenBabel10031817133D
Structure written by MMmdl.
 76 79  0  0  1  0  0  0  0  0999 V2000
   20.3862   49.7491   -6.0467 C   0  0  0  0  0  0  0  0  0  0  0  0
   21.6664   49.2719   -6.4273 O   0  0  0  0  0  0  0  0  0  0  0  0
   21.6806   48.6081   -7.6863 C   0  0  0  0  0  0  0  0  0  0  0  0
   21.0647   47.2169   -7.6705 C   0  0  0  0  0  0  0  0  0  0  0  0
   20.6092   46.6472   -8.8769 C   0  0  0  0  0  0  0  0  0  0  0  0
   20.0713   45.3422   -8.9001 C   0  0  0  0  0  0  0  0  0  0  0  0
   19.9699   44.6178   -7.6900 C   0  0  0  0  0  0  0  0  0  0  0  0
   20.4251   45.1776   -6.4697 C   0  0  0  0  0  0  0  0  0  0  0  0
   20.9816   46.4710   -6.4759 C   0  0  0  0  0  0  0  0  0  0  0  0
   20.3482   44.5037   -5.2400 N   0  0  0  0  0  0  0  0  0  0  0  0
   20.1064   43.0685   -5.1786 C   0  0  0  0  0  0  0  0  0  0  0  0
   21.3296   42.2455   -5.6072 C   0  0  0  0  0  0  0  0  0  0  0  0
   21.0407   40.7355   -5.6166 C   0  0  0  0  0  0  0  0  0  0  0  0
   22.1981   39.9229   -6.2214 C   0  0  0  0  0  0  0  0  0  0  0  0
   22.4293   40.2874   -7.5798 O   0  0  0  0  0  0  0  0  0  0  0  0
   21.4864   39.9532   -8.5287 C   0  0  0  0  0  0  0  0  0  0  0  0
   20.6318   38.8271   -8.4373 C   0  0  0  0  0  0  0  0  0  0  0  0
   19.7045   38.5536   -9.4611 C   0  0  0  0  0  0  0  0  0  0  0  0
   19.6060   39.4084  -10.5754 C   0  0  0  0  0  0  0  0  0  0  0  0
   20.4288   40.5501  -10.6637 C   0  0  0  0  0  0  0  0  0  0  0  0
   21.3855   40.7952   -9.6548 C   0  0  0  0  0  0  0  0  0  0  0  0
   20.2991   41.4973  -11.8471 C   0  0  0  0  0  0  0  0  0  0  0  0
   19.3972   42.7410  -11.6191 C   0  0  2  0  0  0  0  0  0  0  0  0
   19.7608   43.4559  -10.3896 N   0  0  0  0  0  0  0  0  0  0  0  0
   19.5625   44.7711  -10.1938 C   0  0  0  0  0  0  0  0  0  0  0  0
   19.0290   45.4971  -11.0344 O   0  0  0  0  0  0  0  0  0  0  0  0
   17.8651   42.4403  -11.7485 C   0  0  1  0  0  0  0  0  0  0  0  0
   17.0181   42.4962  -10.4464 C   0  0  1  0  0  0  0  0  0  0  0  0
   15.4969   42.4230  -10.7147 C   0  0  0  0  0  0  0  0  0  0  0  0
   14.7673   42.3779   -9.4903 O   0  0  0  0  0  0  0  0  0  0  0  0
   15.1210   41.2813   -8.6433 C   0  0  2  0  0  0  0  0  0  0  0  0
   16.6262   41.3606   -8.3301 C   0  0  0  0  0  0  0  0  0  0  0  0
   17.4026   41.3961   -9.5650 N   0  0  0  0  0  0  0  0  0  0  0  0
   14.6689   39.9205   -9.2340 C   0  0  0  0  0  0  0  0  0  0  0  0
   15.0787   38.7961   -8.4746 O   0  0  0  0  0  0  0  0  0  0  0  0
   14.6095   38.7837   -7.1385 C   0  0  0  0  0  0  0  0  0  0  0  0
   17.3408   43.3518  -12.7002 O   0  0  0  0  0  0  0  0  0  0  0  0
   19.6600   43.4076  -12.4400 H   0  0  0  0  0  0  0  0  0  0  0  0
   17.7299   41.4539  -12.1948 H   0  0  0  0  0  0  0  0  0  0  0  0
   17.1913   43.4417   -9.9349 H   0  0  0  0  0  0  0  0  0  0  0  0
   14.5849   41.4411   -7.7086 H   0  0  0  0  0  0  0  0  0  0  0  0
   20.4614   50.2349   -5.0741 H   0  0  0  0  0  0  0  0  0  0  0  0
   19.6549   48.9454   -5.9638 H   0  0  0  0  0  0  0  0  0  0  0  0
   20.0131   50.4839   -6.7600 H   0  0  0  0  0  0  0  0  0  0  0  0
   22.7214   48.5036   -7.9953 H   0  0  0  0  0  0  0  0  0  0  0  0
   21.1956   49.2265   -8.4444 H   0  0  0  0  0  0  0  0  0  0  0  0
   20.6812   47.2150   -9.7938 H   0  0  0  0  0  0  0  0  0  0  0  0
   19.5299   43.6327   -7.7120 H   0  0  0  0  0  0  0  0  0  0  0  0
   21.3429   46.9021   -5.5535 H   0  0  0  0  0  0  0  0  0  0  0  0
   20.7342   44.9316   -4.4029 H   0  0  0  0  0  0  0  0  0  0  0  0
   19.2595   42.8134   -5.8060 H   0  0  0  0  0  0  0  0  0  0  0  0
   19.8251   42.8085   -4.1580 H   0  0  0  0  0  0  0  0  0  0  0  0
   22.1707   42.4549   -4.9445 H   0  0  0  0  0  0  0  0  0  0  0  0
   21.6416   42.5538   -6.6055 H   0  0  0  0  0  0  0  0  0  0  0  0
   20.1191   40.5388   -6.1662 H   0  0  0  0  0  0  0  0  0  0  0  0
   20.8552   40.3974   -4.5964 H   0  0  0  0  0  0  0  0  0  0  0  0
   22.0438   38.8514   -6.1056 H   0  0  0  0  0  0  0  0  0  0  0  0
   23.1080   40.1500   -5.6657 H   0  0  0  0  0  0  0  0  0  0  0  0
   20.6755   38.1514   -7.5979 H   0  0  0  0  0  0  0  0  0  0  0  0
   19.0614   37.6891   -9.3879 H   0  0  0  0  0  0  0  0  0  0  0  0
   18.8780   39.1966  -11.3463 H   0  0  0  0  0  0  0  0  0  0  0  0
   22.0416   41.6505   -9.7289 H   0  0  0  0  0  0  0  0  0  0  0  0
   19.9595   40.9392  -12.7210 H   0  0  0  0  0  0  0  0  0  0  0  0
   21.3054   41.8350  -12.1014 H   0  0  0  0  0  0  0  0  0  0  0  0
   20.2338   42.9306   -9.6687 H   0  0  0  0  0  0  0  0  0  0  0  0
   15.2477   41.5801  -11.3580 H   0  0  0  0  0  0  0  0  0  0  0  0
   15.1665   43.3143  -11.2491 H   0  0  0  0  0  0  0  0  0  0  0  0
   16.9331   40.5151   -7.7138 H   0  0  0  0  0  0  0  0  0  0  0  0
   16.8283   42.2555   -7.7401 H   0  0  0  0  0  0  0  0  0  0  0  0
   18.3956   41.4276   -9.3548 H   0  0  0  0  0  0  0  0  0  0  0  0
   13.5858   39.8993   -9.3553 H   0  0  0  0  0  0  0  0  0  0  0  0
   15.0892   39.7625  -10.2253 H   0  0  0  0  0  0  0  0  0  0  0  0
   14.4601   37.7500   -6.8398 H   0  0  0  0  0  0  0  0  0  0  0  0
   13.6594   39.2996   -7.0213 H   0  0  0  0  0  0  0  0  0  0  0  0
   15.3323   39.2419   -6.4622 H   0  0  0  0  0  0  0  0  0  0  0  0
   17.5412   44.2281  -12.3927 H   0  0  0  0  0  0  0  0  0  0  0  0
  1  2  1  0  0  0  0
  1 42  1  0  0  0  0
  1 43  1  0  0  0  0
  1 44  1  0  0  0  0
  2  3  1  0  0  0  0
  3  4  1  0  0  0  0
  3 45  1  0  0  0  0
  3 46  1  0  0  0  0
  4  9  1  0  0  0  0
  4  5  2  0  0  0  0
  5  6  1  0  0  0  0
  5 47  1  0  0  0  0
  6 25  1  0  0  0  0
  6  7  2  0  0  0  0
  7  8  1  0  0  0  0
  7 48  1  0  0  0  0
  8  9  2  0  0  0  0
  8 10  1  0  0  0  0
  9 49  1  0  0  0  0
 10 11  1  0  0  0  0
 10 50  1  0  0  0  0
 11 12  1  0  0  0  0
 11 51  1  0  0  0  0
 11 52  1  0  0  0  0
 12 13  1  0  0  0  0
 12 53  1  0  0  0  0
 12 54  1  0  0  0  0
 13 14  1  0  0  0  0
 13 55  1  0  0  0  0
 13 56  1  0  0  0  0
 14 15  1  0  0  0  0
 14 57  1  0  0  0  0
 14 58  1  0  0  0  0
 15 16  1  0  0  0  0
 16 21  1  0  0  0  0
 16 17  2  0  0  0  0
 17 18  1  0  0  0  0
 17 59  1  0  0  0  0
 18 19  2  0  0  0  0
 18 60  1  0  0  0  0
 19 20  1  0  0  0  0
 19 61  1  0  0  0  0
 20 21  2  0  0  0  0
 20 22  1  0  0  0  0
 21 62  1  0  0  0  0
 22 23  1  0  0  0  0
 22 63  1  0  0  0  0
 22 64  1  0  0  0  0
 23 38  1  6  0  0  0
 23 24  1  0  0  0  0
 23 27  1  0  0  0  0
 24 25  1  0  0  0  0
 24 65  1  0  0  0  0
 25 26  2  0  0  0  0
 27 39  1  6  0  0  0
 27 28  1  0  0  0  0
 27 37  1  0  0  0  0
 28 40  1  1  0  0  0
 28 33  1  0  0  0  0
 28 29  1  0  0  0  0
 29 30  1  0  0  0  0
 29 66  1  0  0  0  0
 29 67  1  0  0  0  0
 30 31  1  0  0  0  0
 31 41  1  1  0  0  0
 31 32  1  0  0  0  0
 31 34  1  0  0  0  0
 32 33  1  0  0  0  0
 32 68  1  0  0  0  0
 32 69  1  0  0  0  0
 33 70  1  0  0  0  0
 34 35  1  0  0  0  0
 34 71  1  0  0  0  0
 34 72  1  0  0  0  0
 35 36  1  0  0  0  0
 36 73  1  0  0  0  0
 36 74  1  0  0  0  0
 36 75  1  0  0  0  0
 37 76  1  0  0  0  0
M  END
>  <s_m_source_file>
BACE_13.smi

>  <i_m_source_file_index>
1

>  <i_lp_mmshare_version>
42013

>  <i_f3d_flags>
0

>  <s_epik_input>
W0NIM11PW0NIMl1jKFtjSF1jMTIpW2NIXWMoW2NIXTEpW05IXVtDSDJdW0NIMl1bQ0gyXVtDSDJdT2MzW2NIXVtjSF1bY0hdYyhbY0hdMylbQ0gyXVtDQEhdKFtOSF1DMj1PKVtDQEhdKFtPSF0pW0NASF00W0NIMl1PW0NASF0oW0NIMl1bTkhdNClbQ0gyXU9bQ0gzXQ==

>  <s_epik_cmdline>
J2VwaWtfcHl0aG9uJywgJy1waCcsICc3LjAnLCAnLXRuJywgJzgnLCAnLW1hJywgJzIwMCcsICctaW1hZScsICc8aW5maWxlLm1hZT4nLCAnLW9tYWUnLCAnPG91dGZpbGUubWFlPic=

>  <r_lp_tautomer_probability>
1

>  <r_epik_Ionization_Penalty>
1.0247

>  <r_epik_Ionization_Penalty_Charging>
0

>  <r_epik_Ionization_Penalty_Neutral>
1.0247

>  <r_epik_State_Penalty>
1.0749

>  <r_epik_Charging_Adjusted_Penalty>
1.07494

>  <i_epik_Tot_Q>
0

>  <i_epik_Tot_abs_Q>
0

>  <s_lp_Force_Field>
OPLS_2005

>  <r_lp_Energy>
44.7965

>  <b_lp_Chiralities_Consistent>
1

>  <s_lp_Variant>
BACE_13.smi:1-2

>  <chiral flag>
1

>  <version>
0

>  <r_i_glide_lipo>
-0.805819

>  <r_i_glide_hbond>
-0.734486

>  <r_i_glide_metal>
-0

>  <r_i_glide_rewards>
0

>  <r_i_glide_erotb>
0.310939

>  <r_i_glide_esite>
-0.00333392

>  <s_i_glide_gridfile>
second_dock_grid_2

>  <i_i_glide_lignum>
27

>  <i_i_glide_rotatable_bonds>
7

>  <r_i_docking_score>
-2.22705

>  <r_i_glide_ligand_efficiency>
-0.0601906

>  <r_i_glide_ligand_efficiency_sa>
-0.200568

>  <r_i_glide_ligand_efficiency_ln>
-0.482995

>  <r_glide_XP_GScore>
-3.30195

>  <r_i_glide_gscore>
-3.30195

>  <r_i_glide_evdw>
-37.3295

>  <r_i_glide_ecoul>
-8.68534

>  <r_i_glide_energy>
-46.0148

>  <r_i_glide_einternal>
1.52321

>  <r_i_glide_emodel>
-62.6156

>  <r_glide_XP_HBond>
-1.52948

>  <i_i_glide_confnum>
1

>  <i_i_glide_posenum>
17

>  <r_i_glide_eff_state_penalty>
1.0749

>  <i_glide_XP_PoseRank>
7

>  <chiral flag>
1

$$$$
