BACE_11.smi:1
 OpenBabel10031817133D
Structure written by MMmdl.
 80 82  0  0  1  0  0  0  0  0999 V2000
   28.7039   44.1706  -13.3817 C   0  0  0  0  0  0  0  0  0  0  0  0
   28.0988   44.0942  -11.9664 C   0  0  1  0  0  0  0  0  0  0  0  0
   26.5514   44.0524  -11.8991 C   0  0  0  0  0  0  0  0  0  0  0  0
   25.8896   44.7694  -12.6469 O   0  0  0  0  0  0  0  0  0  0  0  0
   25.9823   43.2820  -10.9567 N   0  0  0  0  0  0  0  0  0  0  0  0
   24.5979   43.3165  -10.4720 C   0  0  1  0  0  0  0  0  0  0  0  0
   24.3457   44.5583   -9.5815 C   0  0  0  0  0  0  0  0  0  0  0  0
   25.2708   44.6260   -8.3812 C   0  0  0  0  0  0  0  0  0  0  0  0
   24.8391   44.1255   -7.1401 C   0  0  0  0  0  0  0  0  0  0  0  0
   25.7063   44.1505   -6.0370 C   0  0  0  0  0  0  0  0  0  0  0  0
   27.0151   44.6528   -6.1612 C   0  0  0  0  0  0  0  0  0  0  0  0
   27.4649   45.1511   -7.4076 C   0  0  0  0  0  0  0  0  0  0  0  0
   26.5746   45.1565   -8.4986 C   0  0  0  0  0  0  0  0  0  0  0  0
   28.7332   45.6337   -7.6406 O   0  0  0  0  0  0  0  0  0  0  0  0
   29.6929   45.5588   -6.6004 C   0  0  0  0  0  0  0  0  0  0  0  0
   31.0782   45.9389   -7.1486 C   0  0  0  0  0  0  0  0  0  0  0  0
   31.7647   44.8293   -7.9723 C   0  0  0  0  0  0  0  0  0  0  0  0
   31.7757   45.0359   -9.5040 C   0  0  0  0  0  0  0  0  0  0  0  0
   30.4380   44.8591  -10.2616 C   0  0  0  0  0  0  0  0  0  0  0  0
   29.8986   43.4151  -10.3225 C   0  0  0  0  0  0  0  0  0  0  0  0
   30.4580   42.5500   -9.6452 O   0  0  0  0  0  0  0  0  0  0  0  0
   28.8439   43.1141  -11.1320 N   0  0  0  0  0  0  0  0  0  0  0  0
   28.4837   41.7019  -11.3068 C   0  0  0  0  0  0  0  0  0  0  0  0
   23.5286   43.0660  -11.5784 C   0  0  1  0  0  0  0  0  0  0  0  0
   22.3198   42.2373  -11.0682 C   0  0  0  0  0  0  0  0  0  0  0  0
   21.6600   41.5292  -12.1685 N   0  0  0  0  0  0  0  0  0  0  0  0
   20.9503   40.3116  -11.7713 C   0  0  0  0  0  0  0  0  0  0  0  0
   19.6223   40.5487  -11.0806 C   0  0  0  0  0  0  0  0  0  0  0  0
   18.6667   41.4154  -11.6466 C   0  0  0  0  0  0  0  0  0  0  0  0
   17.4163   41.5860  -11.0252 C   0  0  0  0  0  0  0  0  0  0  0  0
   17.1116   40.8867   -9.8421 C   0  0  0  0  0  0  0  0  0  0  0  0
   18.0617   40.0158   -9.2586 C   0  0  0  0  0  0  0  0  0  0  0  0
   19.3187   39.8594   -9.8874 C   0  0  0  0  0  0  0  0  0  0  0  0
   17.7815   39.2384   -7.9682 C   0  0  0  0  0  0  0  0  0  0  0  0
   17.7965   37.7208   -8.2153 C   0  0  0  0  0  0  0  0  0  0  0  0
   16.4870   39.6453   -7.2405 C   0  0  0  0  0  0  0  0  0  0  0  0
   23.0519   44.3122  -12.0400 O   0  0  0  0  0  0  0  0  0  0  0  0
   28.2648   45.0839  -11.5444 H   0  0  0  0  0  0  0  0  0  0  0  0
   24.5645   42.4517   -9.8098 H   0  0  0  0  0  0  0  0  0  0  0  0
   23.9948   42.5519  -12.4227 H   0  0  0  0  0  0  0  0  0  0  0  0
   28.1497   44.8530  -14.0247 H   0  0  0  0  0  0  0  0  0  0  0  0
   28.7163   43.1915  -13.8589 H   0  0  0  0  0  0  0  0  0  0  0  0
   29.7347   44.5232  -13.3529 H   0  0  0  0  0  0  0  0  0  0  0  0
   26.6136   42.7157  -10.4123 H   0  0  0  0  0  0  0  0  0  0  0  0
   24.4664   45.4744  -10.1579 H   0  0  0  0  0  0  0  0  0  0  0  0
   23.3139   44.5599   -9.2307 H   0  0  0  0  0  0  0  0  0  0  0  0
   23.8478   43.7098   -7.0314 H   0  0  0  0  0  0  0  0  0  0  0  0
   25.3750   43.7514   -5.0906 H   0  0  0  0  0  0  0  0  0  0  0  0
   27.6544   44.6316   -5.2937 H   0  0  0  0  0  0  0  0  0  0  0  0
   26.9104   45.5499   -9.4471 H   0  0  0  0  0  0  0  0  0  0  0  0
   29.4098   46.2526   -5.8074 H   0  0  0  0  0  0  0  0  0  0  0  0
   29.7343   44.5599   -6.1662 H   0  0  0  0  0  0  0  0  0  0  0  0
   31.0270   46.8742   -7.7074 H   0  0  0  0  0  0  0  0  0  0  0  0
   31.7137   46.1525   -6.2874 H   0  0  0  0  0  0  0  0  0  0  0  0
   32.8074   44.7984   -7.6567 H   0  0  0  0  0  0  0  0  0  0  0  0
   31.3723   43.8518   -7.6998 H   0  0  0  0  0  0  0  0  0  0  0  0
   32.1687   46.0308   -9.7199 H   0  0  0  0  0  0  0  0  0  0  0  0
   32.5052   44.3490   -9.9346 H   0  0  0  0  0  0  0  0  0  0  0  0
   29.6836   45.5210   -9.8483 H   0  0  0  0  0  0  0  0  0  0  0  0
   30.6022   45.1940  -11.2850 H   0  0  0  0  0  0  0  0  0  0  0  0
   27.9275   41.3479  -10.4408 H   0  0  0  0  0  0  0  0  0  0  0  0
   29.3609   41.0663  -11.4295 H   0  0  0  0  0  0  0  0  0  0  0  0
   27.8624   41.5410  -12.1878 H   0  0  0  0  0  0  0  0  0  0  0  0
   22.6910   41.4949  -10.3602 H   0  0  0  0  0  0  0  0  0  0  0  0
   21.6125   42.8540  -10.5149 H   0  0  0  0  0  0  0  0  0  0  0  0
   22.3813   41.2764  -12.8416 H   0  0  0  0  0  0  0  0  0  0  0  0
   20.7381   39.7207  -12.6629 H   0  0  0  0  0  0  0  0  0  0  0  0
   21.5910   39.6818  -11.1509 H   0  0  0  0  0  0  0  0  0  0  0  0
   18.8950   41.9426  -12.5578 H   0  0  0  0  0  0  0  0  0  0  0  0
   16.6864   42.2516  -11.4578 H   0  0  0  0  0  0  0  0  0  0  0  0
   16.1414   41.0336   -9.3924 H   0  0  0  0  0  0  0  0  0  0  0  0
   20.0538   39.1944   -9.4530 H   0  0  0  0  0  0  0  0  0  0  0  0
   18.6057   39.4687   -7.2931 H   0  0  0  0  0  0  0  0  0  0  0  0
   18.7394   37.3847   -8.6453 H   0  0  0  0  0  0  0  0  0  0  0  0
   16.9942   37.4217   -8.8921 H   0  0  0  0  0  0  0  0  0  0  0  0
   17.6601   37.1799   -7.2789 H   0  0  0  0  0  0  0  0  0  0  0  0
   16.4718   40.7106   -7.0054 H   0  0  0  0  0  0  0  0  0  0  0  0
   16.3856   39.1062   -6.2965 H   0  0  0  0  0  0  0  0  0  0  0  0
   15.6002   39.4171   -7.8331 H   0  0  0  0  0  0  0  0  0  0  0  0
   23.8044   44.7768  -12.3885 H   0  0  0  0  0  0  0  0  0  0  0  0
  1  2  1  0  0  0  0
  1 41  1  0  0  0  0
  1 42  1  0  0  0  0
  1 43  1  0  0  0  0
  2 38  1  1  0  0  0
  2 22  1  0  0  0  0
  2  3  1  0  0  0  0
  3  4  2  0  0  0  0
  3  5  1  0  0  0  0
  5  6  1  0  0  0  0
  5 44  1  0  0  0  0
  6 39  1  1  0  0  0
  6  7  1  0  0  0  0
  6 24  1  0  0  0  0
  7  8  1  0  0  0  0
  7 45  1  0  0  0  0
  7 46  1  0  0  0  0
  8 13  1  0  0  0  0
  8  9  2  0  0  0  0
  9 10  1  0  0  0  0
  9 47  1  0  0  0  0
 10 11  2  0  0  0  0
 10 48  1  0  0  0  0
 11 12  1  0  0  0  0
 11 49  1  0  0  0  0
 12 13  2  0  0  0  0
 12 14  1  0  0  0  0
 13 50  1  0  0  0  0
 14 15  1  0  0  0  0
 15 16  1  0  0  0  0
 15 51  1  0  0  0  0
 15 52  1  0  0  0  0
 16 17  1  0  0  0  0
 16 53  1  0  0  0  0
 16 54  1  0  0  0  0
 17 18  1  0  0  0  0
 17 55  1  0  0  0  0
 17 56  1  0  0  0  0
 18 19  1  0  0  0  0
 18 57  1  0  0  0  0
 18 58  1  0  0  0  0
 19 20  1  0  0  0  0
 19 59  1  0  0  0  0
 19 60  1  0  0  0  0
 20 21  2  0  0  0  0
 20 22  1  0  0  0  0
 22 23  1  0  0  0  0
 23 61  1  0  0  0  0
 23 62  1  0  0  0  0
 23 63  1  0  0  0  0
 24 40  1  6  0  0  0
 24 25  1  0  0  0  0
 24 37  1  0  0  0  0
 25 26  1  0  0  0  0
 25 64  1  0  0  0  0
 25 65  1  0  0  0  0
 26 27  1  0  0  0  0
 26 66  1  0  0  0  0
 27 28  1  0  0  0  0
 27 67  1  0  0  0  0
 27 68  1  0  0  0  0
 28 33  1  0  0  0  0
 28 29  2  0  0  0  0
 29 30  1  0  0  0  0
 29 69  1  0  0  0  0
 30 31  2  0  0  0  0
 30 70  1  0  0  0  0
 31 32  1  0  0  0  0
 31 71  1  0  0  0  0
 32 33  2  0  0  0  0
 32 34  1  0  0  0  0
 33 72  1  0  0  0  0
 34 35  1  0  0  0  0
 34 36  1  0  0  0  0
 34 73  1  0  0  0  0
 35 74  1  0  0  0  0
 35 75  1  0  0  0  0
 35 76  1  0  0  0  0
 36 77  1  0  0  0  0
 36 78  1  0  0  0  0
 36 79  1  0  0  0  0
 37 80  1  0  0  0  0
M  END
>  <s_m_source_file>
BACE_11.smi

>  <i_m_source_file_index>
1

>  <i_lp_mmshare_version>
42013

>  <i_f3d_flags>
0

>  <s_epik_input>
YzEyW2NIXVtjSF1bY0hdYyhbY0hdMilPW0NIMl1bQ0gyXVtDSDJdW0NIMl1bQ0gyXUMoPU8pTihbQ0gzXSlbQ0BASF0oW0NIM10pQyg9TylbTkhdW0NAQEhdKFtDSDJdMSlbQ0BIXShbT0hdKVtDSDJdW05IXVtDSDJdYzNbY0hdW2NIXVtjSF1jKFtjSF0zKVtDSF0oW0NIM10pW0NIM10=

>  <s_epik_cmdline>
J2VwaWtfcHl0aG9uJywgJy1waCcsICc3LjAnLCAnLXRuJywgJzgnLCAnLW1hJywgJzIwMCcsICctaW1hZScsICc8aW5maWxlLm1hZT4nLCAnLW9tYWUnLCAnPG91dGZpbGUubWFlPic=

>  <r_lp_tautomer_probability>
1

>  <r_epik_Ionization_Penalty>
1.9888

>  <r_epik_Ionization_Penalty_Charging>
0

>  <r_epik_Ionization_Penalty_Neutral>
1.9888

>  <r_epik_State_Penalty>
2.1166

>  <r_epik_Charging_Adjusted_Penalty>
2.11661

>  <i_epik_Tot_Q>
0

>  <i_epik_Tot_abs_Q>
0

>  <s_lp_Force_Field>
OPLS_2005

>  <r_lp_Energy>
44.3635

>  <b_lp_Chiralities_Consistent>
1

>  <s_lp_Variant>
BACE_11.smi:1-2

>  <chiral flag>
1

>  <version>
0

>  <r_i_glide_lipo>
-0.657211

>  <r_i_glide_hbond>
-0.267375

>  <r_i_glide_metal>
-0

>  <r_i_glide_rewards>
-0.382084

>  <r_i_glide_erotb>
0.394218

>  <r_i_glide_esite>
0

>  <s_i_glide_gridfile>
second_dock_grid_2

>  <i_i_glide_lignum>
23

>  <i_i_glide_rotatable_bonds>
7

>  <r_i_docking_score>
-0.0234128

>  <r_i_glide_ligand_efficiency>
-0.000632779

>  <r_i_glide_ligand_efficiency_sa>
-0.00210856

>  <r_i_glide_ligand_efficiency_ln>
-0.00507769

>  <r_glide_XP_GScore>
-2.14001

>  <r_i_glide_gscore>
-2.14001

>  <r_i_glide_evdw>
-34.2461

>  <r_i_glide_ecoul>
-7.3799

>  <r_i_glide_energy>
-41.626

>  <r_i_glide_einternal>
1.57033

>  <r_i_glide_emodel>
-54.7798

>  <r_glide_XP_HBond>
-0.9975

>  <i_i_glide_confnum>
1

>  <i_i_glide_posenum>
9

>  <r_i_glide_eff_state_penalty>
2.1166

>  <i_glide_XP_PoseRank>
4

>  <chiral flag>
1

$$$$
