BACE_11.smi:1
 OpenBabel10031817133D
Structure written by MMmdl.
 80 82  0  0  1  0  0  0  0  0999 V2000
   28.5291   44.2691  -13.3006 C   0  0  0  0  0  0  0  0  0  0  0  0
   27.9257   44.1466  -11.8893 C   0  0  1  0  0  0  0  0  0  0  0  0
   26.3807   44.0821  -11.8298 C   0  0  0  0  0  0  0  0  0  0  0  0
   25.7093   44.7819  -12.5890 O   0  0  0  0  0  0  0  0  0  0  0  0
   25.8243   43.3042  -10.8868 N   0  0  0  0  0  0  0  0  0  0  0  0
   24.4279   43.2875  -10.4455 C   0  0  1  0  0  0  0  0  0  0  0  0
   24.0950   44.5162   -9.5618 C   0  0  0  0  0  0  0  0  0  0  0  0
   24.9683   44.6009   -8.3223 C   0  0  0  0  0  0  0  0  0  0  0  0
   24.4842   44.1147   -7.0954 C   0  0  0  0  0  0  0  0  0  0  0  0
   25.3086   44.1494   -5.9596 C   0  0  0  0  0  0  0  0  0  0  0  0
   26.6243   44.6435   -6.0400 C   0  0  0  0  0  0  0  0  0  0  0  0
   27.1239   45.1305   -7.2722 C   0  0  0  0  0  0  0  0  0  0  0  0
   26.2744   45.1309   -8.3956 C   0  0  0  0  0  0  0  0  0  0  0  0
   28.4033   45.6008   -7.4637 O   0  0  0  0  0  0  0  0  0  0  0  0
   29.3311   45.5027   -6.3952 C   0  0  0  0  0  0  0  0  0  0  0  0
   30.7306   45.8812   -6.9037 C   0  0  0  0  0  0  0  0  0  0  0  0
   31.4163   44.7940   -7.7601 C   0  0  0  0  0  0  0  0  0  0  0  0
   31.4940   45.0856   -9.2767 C   0  0  0  0  0  0  0  0  0  0  0  0
   30.1971   44.8978  -10.1001 C   0  0  0  0  0  0  0  0  0  0  0  0
   29.7309   43.4365  -10.2738 C   0  0  0  0  0  0  0  0  0  0  0  0
   30.3409   42.5499   -9.6732 O   0  0  0  0  0  0  0  0  0  0  0  0
   28.6797   43.1490  -11.0893 N   0  0  0  0  0  0  0  0  0  0  0  0
   28.3442   41.7359  -11.3144 C   0  0  0  0  0  0  0  0  0  0  0  0
   23.4137   42.9925  -11.5873 C   0  0  1  0  0  0  0  0  0  0  0  0
   22.2679   42.0554  -11.1319 C   0  0  0  0  0  0  0  0  0  0  0  0
   21.6600   41.3498  -12.2634 N   0  0  0  0  0  0  0  0  0  0  0  0
   20.9089   40.1506  -11.8911 C   0  0  0  0  0  0  0  0  0  0  0  0
   19.6991   40.4162  -11.0147 C   0  0  0  0  0  0  0  0  0  0  0  0
   18.6607   41.2570  -11.4655 C   0  0  0  0  0  0  0  0  0  0  0  0
   17.5376   41.4886  -10.6475 C   0  0  0  0  0  0  0  0  0  0  0  0
   17.4505   40.8845   -9.3777 C   0  0  0  0  0  0  0  0  0  0  0  0
   18.4846   40.0411   -8.9172 C   0  0  0  0  0  0  0  0  0  0  0  0
   19.6041   39.8057   -9.7464 C   0  0  0  0  0  0  0  0  0  0  0  0
   18.3859   39.3957   -7.5394 C   0  0  0  0  0  0  0  0  0  0  0  0
   19.6078   39.7213   -6.6634 C   0  0  0  0  0  0  0  0  0  0  0  0
   18.1488   37.8821   -7.6475 C   0  0  0  0  0  0  0  0  0  0  0  0
   22.8599   44.2097  -12.0396 O   0  0  0  0  0  0  0  0  0  0  0  0
   28.0764   45.1272  -11.4429 H   0  0  0  0  0  0  0  0  0  0  0  0
   24.4076   42.4223   -9.7815 H   0  0  0  0  0  0  0  0  0  0  0  0
   23.9425   42.5500  -12.4280 H   0  0  0  0  0  0  0  0  0  0  0  0
   27.9718   44.9686  -13.9250 H   0  0  0  0  0  0  0  0  0  0  0  0
   28.5385   43.3036  -13.8046 H   0  0  0  0  0  0  0  0  0  0  0  0
   29.5598   44.6213  -13.2610 H   0  0  0  0  0  0  0  0  0  0  0  0
   26.4633   42.7610  -10.3238 H   0  0  0  0  0  0  0  0  0  0  0  0
   24.2067   45.4418  -10.1275 H   0  0  0  0  0  0  0  0  0  0  0  0
   23.0496   44.4741   -9.2542 H   0  0  0  0  0  0  0  0  0  0  0  0
   23.4877   43.7030   -7.0216 H   0  0  0  0  0  0  0  0  0  0  0  0
   24.9352   43.7606   -5.0235 H   0  0  0  0  0  0  0  0  0  0  0  0
   27.2270   44.6332   -5.1448 H   0  0  0  0  0  0  0  0  0  0  0  0
   26.6512   45.5132   -9.3320 H   0  0  0  0  0  0  0  0  0  0  0  0
   29.0322   46.1891   -5.6018 H   0  0  0  0  0  0  0  0  0  0  0  0
   29.3516   44.4967   -5.9732 H   0  0  0  0  0  0  0  0  0  0  0  0
   30.6995   46.8366   -7.4284 H   0  0  0  0  0  0  0  0  0  0  0  0
   31.3543   46.0539   -6.0255 H   0  0  0  0  0  0  0  0  0  0  0  0
   32.4457   44.7137   -7.4075 H   0  0  0  0  0  0  0  0  0  0  0  0
   30.9849   43.8136   -7.5594 H   0  0  0  0  0  0  0  0  0  0  0  0
   31.8600   46.1030   -9.4218 H   0  0  0  0  0  0  0  0  0  0  0  0
   32.2662   44.4466   -9.7076 H   0  0  0  0  0  0  0  0  0  0  0  0
   29.3964   45.4968   -9.6715 H   0  0  0  0  0  0  0  0  0  0  0  0
   30.3830   45.3046  -11.0946 H   0  0  0  0  0  0  0  0  0  0  0  0
   27.8391   41.3272  -10.4398 H   0  0  0  0  0  0  0  0  0  0  0  0
   29.2346   41.1329  -11.5055 H   0  0  0  0  0  0  0  0  0  0  0  0
   27.6887   41.5956  -12.1742 H   0  0  0  0  0  0  0  0  0  0  0  0
   22.6845   41.3074  -10.4575 H   0  0  0  0  0  0  0  0  0  0  0  0
   21.5174   42.5964  -10.5563 H   0  0  0  0  0  0  0  0  0  0  0  0
   22.4228   41.0620  -12.8784 H   0  0  0  0  0  0  0  0  0  0  0  0
   20.5573   39.6504  -12.7940 H   0  0  0  0  0  0  0  0  0  0  0  0
   21.5682   39.4385  -11.3940 H   0  0  0  0  0  0  0  0  0  0  0  0
   18.7279   41.7244  -12.4364 H   0  0  0  0  0  0  0  0  0  0  0  0
   16.7408   42.1306  -10.9911 H   0  0  0  0  0  0  0  0  0  0  0  0
   16.5840   41.0701   -8.7581 H   0  0  0  0  0  0  0  0  0  0  0  0
   20.3964   39.1553   -9.4053 H   0  0  0  0  0  0  0  0  0  0  0  0
   17.5152   39.8198   -7.0352 H   0  0  0  0  0  0  0  0  0  0  0  0
   19.7525   40.7994   -6.5878 H   0  0  0  0  0  0  0  0  0  0  0  0
   20.5248   39.2837   -7.0567 H   0  0  0  0  0  0  0  0  0  0  0  0
   19.4699   39.3449   -5.6491 H   0  0  0  0  0  0  0  0  0  0  0  0
   17.2248   37.6685   -8.1865 H   0  0  0  0  0  0  0  0  0  0  0  0
   18.0600   37.4283   -6.6598 H   0  0  0  0  0  0  0  0  0  0  0  0
   18.9633   37.3841   -8.1728 H   0  0  0  0  0  0  0  0  0  0  0  0
   23.5768   44.7258  -12.3880 H   0  0  0  0  0  0  0  0  0  0  0  0
  1  2  1  0  0  0  0
  1 41  1  0  0  0  0
  1 42  1  0  0  0  0
  1 43  1  0  0  0  0
  2 38  1  1  0  0  0
  2 22  1  0  0  0  0
  2  3  1  0  0  0  0
  3  4  2  0  0  0  0
  3  5  1  0  0  0  0
  5  6  1  0  0  0  0
  5 44  1  0  0  0  0
  6 39  1  1  0  0  0
  6  7  1  0  0  0  0
  6 24  1  0  0  0  0
  7  8  1  0  0  0  0
  7 45  1  0  0  0  0
  7 46  1  0  0  0  0
  8 13  1  0  0  0  0
  8  9  2  0  0  0  0
  9 10  1  0  0  0  0
  9 47  1  0  0  0  0
 10 11  2  0  0  0  0
 10 48  1  0  0  0  0
 11 12  1  0  0  0  0
 11 49  1  0  0  0  0
 12 13  2  0  0  0  0
 12 14  1  0  0  0  0
 13 50  1  0  0  0  0
 14 15  1  0  0  0  0
 15 16  1  0  0  0  0
 15 51  1  0  0  0  0
 15 52  1  0  0  0  0
 16 17  1  0  0  0  0
 16 53  1  0  0  0  0
 16 54  1  0  0  0  0
 17 18  1  0  0  0  0
 17 55  1  0  0  0  0
 17 56  1  0  0  0  0
 18 19  1  0  0  0  0
 18 57  1  0  0  0  0
 18 58  1  0  0  0  0
 19 20  1  0  0  0  0
 19 59  1  0  0  0  0
 19 60  1  0  0  0  0
 20 21  2  0  0  0  0
 20 22  1  0  0  0  0
 22 23  1  0  0  0  0
 23 61  1  0  0  0  0
 23 62  1  0  0  0  0
 23 63  1  0  0  0  0
 24 40  1  6  0  0  0
 24 25  1  0  0  0  0
 24 37  1  0  0  0  0
 25 26  1  0  0  0  0
 25 64  1  0  0  0  0
 25 65  1  0  0  0  0
 26 27  1  0  0  0  0
 26 66  1  0  0  0  0
 27 28  1  0  0  0  0
 27 67  1  0  0  0  0
 27 68  1  0  0  0  0
 28 33  1  0  0  0  0
 28 29  2  0  0  0  0
 29 30  1  0  0  0  0
 29 69  1  0  0  0  0
 30 31  2  0  0  0  0
 30 70  1  0  0  0  0
 31 32  1  0  0  0  0
 31 71  1  0  0  0  0
 32 33  2  0  0  0  0
 32 34  1  0  0  0  0
 33 72  1  0  0  0  0
 34 35  1  0  0  0  0
 34 36  1  0  0  0  0
 34 73  1  0  0  0  0
 35 74  1  0  0  0  0
 35 75  1  0  0  0  0
 35 76  1  0  0  0  0
 36 77  1  0  0  0  0
 36 78  1  0  0  0  0
 36 79  1  0  0  0  0
 37 80  1  0  0  0  0
M  END
>  <s_m_source_file>
BACE_11.smi

>  <i_m_source_file_index>
1

>  <i_lp_mmshare_version>
42013

>  <i_f3d_flags>
0

>  <s_epik_input>
YzEyW2NIXVtjSF1bY0hdYyhbY0hdMilPW0NIMl1bQ0gyXVtDSDJdW0NIMl1bQ0gyXUMoPU8pTihbQ0gzXSlbQ0BASF0oW0NIM10pQyg9TylbTkhdW0NAQEhdKFtDSDJdMSlbQ0BIXShbT0hdKVtDSDJdW05IXVtDSDJdYzNbY0hdW2NIXVtjSF1jKFtjSF0zKVtDSF0oW0NIM10pW0NIM10=

>  <s_epik_cmdline>
J2VwaWtfcHl0aG9uJywgJy1waCcsICc3LjAnLCAnLXRuJywgJzgnLCAnLW1hJywgJzIwMCcsICctaW1hZScsICc8aW5maWxlLm1hZT4nLCAnLW9tYWUnLCAnPG91dGZpbGUubWFlPic=

>  <r_lp_tautomer_probability>
1

>  <r_epik_Ionization_Penalty>
1.9888

>  <r_epik_Ionization_Penalty_Charging>
0

>  <r_epik_Ionization_Penalty_Neutral>
1.9888

>  <r_epik_State_Penalty>
2.1166

>  <r_epik_Charging_Adjusted_Penalty>
2.11661

>  <i_epik_Tot_Q>
0

>  <i_epik_Tot_abs_Q>
0

>  <s_lp_Force_Field>
OPLS_2005

>  <r_lp_Energy>
44.3635

>  <b_lp_Chiralities_Consistent>
1

>  <s_lp_Variant>
BACE_11.smi:1-2

>  <chiral flag>
1

>  <version>
0

>  <r_i_glide_lipo>
-0.657211

>  <r_i_glide_hbond>
-0.267375

>  <r_i_glide_metal>
-0

>  <r_i_glide_rewards>
-0.382084

>  <r_i_glide_erotb>
0.394218

>  <r_i_glide_esite>
0

>  <s_i_glide_gridfile>
second_dock_grid_2

>  <i_i_glide_lignum>
23

>  <i_i_glide_rotatable_bonds>
7

>  <r_i_docking_score>
-0.0110898

>  <r_i_glide_ligand_efficiency>
-0.000299725

>  <r_i_glide_ligand_efficiency_sa>
-0.00099875

>  <r_i_glide_ligand_efficiency_ln>
-0.00240512

>  <r_glide_XP_GScore>
-2.12769

>  <r_i_glide_gscore>
-2.12769

>  <r_i_glide_evdw>
-33.0012

>  <r_i_glide_ecoul>
-8.00601

>  <r_i_glide_energy>
-41.0073

>  <r_i_glide_einternal>
2.35552

>  <r_i_glide_emodel>
-53.9643

>  <r_glide_XP_HBond>
-0.9975

>  <i_i_glide_confnum>
1

>  <i_i_glide_posenum>
8

>  <r_i_glide_eff_state_penalty>
2.1166

>  <i_glide_XP_PoseRank>
5

>  <chiral flag>
1

$$$$
