BACE_12.smi:1
 OpenBabel10031817133D
Structure written by MMmdl.
 78 81  0  0  1  0  0  0  0  0999 V2000
   30.5173   42.3313  -11.0691 C   0  0  0  0  0  0  0  0  0  0  0  0
   29.3297   41.8833  -11.9322 C   0  0  0  0  0  0  0  0  0  0  0  0
   29.6873   41.9158  -13.4300 C   0  0  0  0  0  0  0  0  0  0  0  0
   28.0855   42.6948  -11.5807 C   0  0  0  0  0  0  0  0  0  0  0  0
   27.8950   43.9935  -12.1063 C   0  0  0  0  0  0  0  0  0  0  0  0
   26.7782   44.7583  -11.7211 C   0  0  0  0  0  0  0  0  0  0  0  0
   25.8514   44.2399  -10.7986 C   0  0  0  0  0  0  0  0  0  0  0  0
   26.0284   42.9439  -10.2681 C   0  0  0  0  0  0  0  0  0  0  0  0
   27.1394   42.1730  -10.6714 C   0  0  0  0  0  0  0  0  0  0  0  0
   25.0370   42.3854   -9.2595 C   0  0  0  0  0  0  0  0  0  0  0  0
   23.6402   42.5609   -9.6521 N   0  0  0  0  0  0  0  0  0  0  0  0
   23.2865   41.7909  -10.8407 C   0  0  0  0  0  0  0  0  0  0  0  0
   21.8259   42.0036  -11.2841 C   0  0  2  0  0  0  0  0  0  0  0  0
   20.7781   41.4570  -10.2789 C   0  0  2  0  0  0  0  0  0  0  0  0
   20.7114   39.9101  -10.2102 C   0  0  0  0  0  0  0  0  0  0  0  0
   19.6747   39.4020   -9.2230 C   0  0  0  0  0  0  0  0  0  0  0  0
   19.8904   39.5692   -7.8397 C   0  0  0  0  0  0  0  0  0  0  0  0
   18.9200   39.1449   -6.9159 C   0  0  0  0  0  0  0  0  0  0  0  0
   17.7299   38.5496   -7.3722 C   0  0  0  0  0  0  0  0  0  0  0  0
   17.5125   38.3541   -8.7518 C   0  0  0  0  0  0  0  0  0  0  0  0
   18.4891   38.7811   -9.6777 C   0  0  0  0  0  0  0  0  0  0  0  0
   16.2284   37.6870   -9.2168 C   0  0  0  0  0  0  0  0  0  0  0  0
   15.0158   38.6386   -9.1874 C   0  0  0  0  0  0  0  0  0  0  0  0
   15.0332   39.7209  -10.2854 C   0  0  0  0  0  0  0  0  0  0  0  0
   14.2917   40.9899   -9.8384 C   0  0  0  0  0  0  0  0  0  0  0  0
   14.2703   42.0411  -10.8437 N   0  0  0  0  0  0  0  0  0  0  0  0
   15.3329   42.9428  -10.9671 C   0  0  0  0  0  0  0  0  0  0  0  0
   16.6336   42.6662  -10.5032 C   0  0  0  0  0  0  0  0  0  0  0  0
   17.6659   43.5868  -10.7683 C   0  0  0  0  0  0  0  0  0  0  0  0
   17.3416   44.7884  -11.4298 C   0  0  0  0  0  0  0  0  0  0  0  0
   15.9983   44.9990  -11.8306 C   0  0  0  0  0  0  0  0  0  0  0  0
   15.0291   44.0855  -11.6185 N   0  0  0  0  0  0  0  0  0  0  0  0
   15.5435   46.1281  -12.4802 O   0  0  0  0  0  0  0  0  0  0  0  0
   16.4837   47.1561  -12.7450 C   0  0  0  0  0  0  0  0  0  0  0  0
   19.0770   43.2965  -10.3572 C   0  0  0  0  0  0  0  0  0  0  0  0
   19.8238   44.1922   -9.9661 O   0  0  0  0  0  0  0  0  0  0  0  0
   19.4538   42.0207  -10.5366 N   0  0  0  0  0  0  0  0  0  0  0  0
   21.6598   41.3490  -12.5275 O   0  0  0  0  0  0  0  0  0  0  0  0
   21.6876   43.0705  -11.4570 H   0  0  0  0  0  0  0  0  0  0  0  0
   21.0531   41.8143   -9.2869 H   0  0  0  0  0  0  0  0  0  0  0  0
   30.2970   42.2141  -10.0086 H   0  0  0  0  0  0  0  0  0  0  0  0
   30.7569   43.3794  -11.2445 H   0  0  0  0  0  0  0  0  0  0  0  0
   31.4085   41.7495  -11.2920 H   0  0  0  0  0  0  0  0  0  0  0  0
   29.1190   40.8419  -11.6863 H   0  0  0  0  0  0  0  0  0  0  0  0
   28.8600   41.5701  -14.0482 H   0  0  0  0  0  0  0  0  0  0  0  0
   30.5371   41.2652  -13.6416 H   0  0  0  0  0  0  0  0  0  0  0  0
   29.9628   42.9140  -13.7665 H   0  0  0  0  0  0  0  0  0  0  0  0
   28.6090   44.4197  -12.7940 H   0  0  0  0  0  0  0  0  0  0  0  0
   26.6372   45.7486  -12.1257 H   0  0  0  0  0  0  0  0  0  0  0  0
   25.0032   44.8364  -10.4964 H   0  0  0  0  0  0  0  0  0  0  0  0
   27.2734   41.1805  -10.2625 H   0  0  0  0  0  0  0  0  0  0  0  0
   25.2446   41.3285   -9.0893 H   0  0  0  0  0  0  0  0  0  0  0  0
   25.2151   42.8926   -8.3107 H   0  0  0  0  0  0  0  0  0  0  0  0
   23.0338   42.3135   -8.8752 H   0  0  0  0  0  0  0  0  0  0  0  0
   23.9351   42.1338  -11.6443 H   0  0  0  0  0  0  0  0  0  0  0  0
   23.5035   40.7344  -10.6878 H   0  0  0  0  0  0  0  0  0  0  0  0
   20.4838   39.4907  -11.1916 H   0  0  0  0  0  0  0  0  0  0  0  0
   21.6809   39.5016   -9.9258 H   0  0  0  0  0  0  0  0  0  0  0  0
   20.7953   40.0369   -7.4824 H   0  0  0  0  0  0  0  0  0  0  0  0
   19.0742   39.2916   -5.8575 H   0  0  0  0  0  0  0  0  0  0  0  0
   16.9827   38.2326   -6.6584 H   0  0  0  0  0  0  0  0  0  0  0  0
   18.3203   38.6424  -10.7367 H   0  0  0  0  0  0  0  0  0  0  0  0
   16.3617   37.2620  -10.2105 H   0  0  0  0  0  0  0  0  0  0  0  0
   16.0428   36.8461   -8.5486 H   0  0  0  0  0  0  0  0  0  0  0  0
   14.0927   38.0661   -9.2807 H   0  0  0  0  0  0  0  0  0  0  0  0
   14.9661   39.1002   -8.1986 H   0  0  0  0  0  0  0  0  0  0  0  0
   16.0612   39.9430  -10.5616 H   0  0  0  0  0  0  0  0  0  0  0  0
   14.5696   39.3500  -11.1973 H   0  0  0  0  0  0  0  0  0  0  0  0
   13.2590   40.7183   -9.6388 H   0  0  0  0  0  0  0  0  0  0  0  0
   14.7034   41.3749   -8.9040 H   0  0  0  0  0  0  0  0  0  0  0  0
   13.3570   42.3996  -11.0775 H   0  0  0  0  0  0  0  0  0  0  0  0
   16.8568   41.7688   -9.9494 H   0  0  0  0  0  0  0  0  0  0  0  0
   18.1225   45.5091  -11.6210 H   0  0  0  0  0  0  0  0  0  0  0  0
   15.9850   47.9734  -13.2683 H   0  0  0  0  0  0  0  0  0  0  0  0
   17.2938   46.8020  -13.3837 H   0  0  0  0  0  0  0  0  0  0  0  0
   16.8983   47.5569  -11.8193 H   0  0  0  0  0  0  0  0  0  0  0  0
   18.7541   41.3771  -10.8757 H   0  0  0  0  0  0  0  0  0  0  0  0
   22.5301   41.1048  -12.8410 H   0  0  0  0  0  0  0  0  0  0  0  0
  1  2  1  0  0  0  0
  1 41  1  0  0  0  0
  1 42  1  0  0  0  0
  1 43  1  0  0  0  0
  2  3  1  0  0  0  0
  2  4  1  0  0  0  0
  2 44  1  0  0  0  0
  3 45  1  0  0  0  0
  3 46  1  0  0  0  0
  3 47  1  0  0  0  0
  4  9  1  0  0  0  0
  4  5  2  0  0  0  0
  5  6  1  0  0  0  0
  5 48  1  0  0  0  0
  6  7  2  0  0  0  0
  6 49  1  0  0  0  0
  7  8  1  0  0  0  0
  7 50  1  0  0  0  0
  8  9  2  0  0  0  0
  8 10  1  0  0  0  0
  9 51  1  0  0  0  0
 10 11  1  0  0  0  0
 10 52  1  0  0  0  0
 10 53  1  0  0  0  0
 11 12  1  0  0  0  0
 11 54  1  0  0  0  0
 12 13  1  0  0  0  0
 12 55  1  0  0  0  0
 12 56  1  0  0  0  0
 13 39  1  6  0  0  0
 13 14  1  0  0  0  0
 13 38  1  0  0  0  0
 14 40  1  1  0  0  0
 14 37  1  0  0  0  0
 14 15  1  0  0  0  0
 15 16  1  0  0  0  0
 15 57  1  0  0  0  0
 15 58  1  0  0  0  0
 16 21  1  0  0  0  0
 16 17  2  0  0  0  0
 17 18  1  0  0  0  0
 17 59  1  0  0  0  0
 18 19  2  0  0  0  0
 18 60  1  0  0  0  0
 19 20  1  0  0  0  0
 19 61  1  0  0  0  0
 20 21  2  0  0  0  0
 20 22  1  0  0  0  0
 21 62  1  0  0  0  0
 22 23  1  0  0  0  0
 22 63  1  0  0  0  0
 22 64  1  0  0  0  0
 23 24  1  0  0  0  0
 23 65  1  0  0  0  0
 23 66  1  0  0  0  0
 24 25  1  0  0  0  0
 24 67  1  0  0  0  0
 24 68  1  0  0  0  0
 25 26  1  0  0  0  0
 25 69  1  0  0  0  0
 25 70  1  0  0  0  0
 26 27  1  0  0  0  0
 26 71  1  0  0  0  0
 27 32  1  0  0  0  0
 27 28  2  0  0  0  0
 28 29  1  0  0  0  0
 28 72  1  0  0  0  0
 29 30  2  0  0  0  0
 29 35  1  0  0  0  0
 30 31  1  0  0  0  0
 30 73  1  0  0  0  0
 31 32  2  0  0  0  0
 31 33  1  0  0  0  0
 33 34  1  0  0  0  0
 34 74  1  0  0  0  0
 34 75  1  0  0  0  0
 34 76  1  0  0  0  0
 35 36  2  0  0  0  0
 35 37  1  0  0  0  0
 37 77  1  0  0  0  0
 38 78  1  0  0  0  0
M  END
>  <s_m_source_file>
BACE_12.smi

>  <i_m_source_file_index>
1

>  <i_lp_mmshare_version>
42013

>  <i_f3d_flags>
0

>  <s_epik_input>
W0NIM11bQ0hdKFtDSDNdKWMxW2NIXVtjSF1bY0hdYyhbY0hdMSlbQ0gyXVtOSF1bQ0gyXVtDQEBIXShbT0hdKVtDQEhdKFtDSDJdMilbTkhdQyg9TyljKFtjSF1jKG4zKU9bQ0gzXSlbY0hdYzNbTkhdW0NIMl1bQ0gyXVtDSDJdW0NIMl1jKFtjSF00KVtjSF1bY0hdW2NIXWMyNA==

>  <s_epik_cmdline>
J2VwaWtfcHl0aG9uJywgJy1waCcsICc3LjAnLCAnLXRuJywgJzgnLCAnLW1hJywgJzIwMCcsICctaW1hZScsICc8aW5maWxlLm1hZT4nLCAnLW9tYWUnLCAnPG91dGZpbGUubWFlPic=

>  <r_lp_tautomer_probability>
1

>  <r_epik_Ionization_Penalty>
2.0161

>  <r_epik_Ionization_Penalty_Charging>
0

>  <r_epik_Ionization_Penalty_Neutral>
2.0161

>  <r_epik_State_Penalty>
2.146

>  <r_epik_Charging_Adjusted_Penalty>
2.14597

>  <i_epik_Tot_Q>
0

>  <i_epik_Tot_abs_Q>
0

>  <s_lp_Force_Field>
OPLS_2005

>  <r_lp_Energy>
24.9256

>  <b_lp_Chiralities_Consistent>
1

>  <s_lp_Variant>
BACE_12.smi:1-2

>  <chiral flag>
1

>  <version>
0

>  <r_i_glide_lipo>
-0.570191

>  <r_i_glide_hbond>
-0.212313

>  <r_i_glide_metal>
-0

>  <r_i_glide_rewards>
0

>  <r_i_glide_erotb>
0.384471

>  <r_i_glide_esite>
-0.149714

>  <s_i_glide_gridfile>
second_dock_grid_2

>  <i_i_glide_lignum>
25

>  <i_i_glide_rotatable_bonds>
8

>  <r_i_docking_score>
1.00071

>  <r_i_glide_ligand_efficiency>
0.0263343

>  <r_i_glide_ligand_efficiency_sa>
0.0885354

>  <r_i_glide_ligand_efficiency_ln>
0.215781

>  <r_glide_XP_GScore>
-1.14529

>  <r_i_glide_gscore>
-1.14529

>  <r_i_glide_evdw>
-40.172

>  <r_i_glide_ecoul>
-11.2717

>  <r_i_glide_energy>
-51.4437

>  <r_i_glide_einternal>
11.1166

>  <r_i_glide_emodel>
-68.7148

>  <r_glide_XP_HBond>
-1.26699

>  <i_i_glide_confnum>
1

>  <i_i_glide_posenum>
4

>  <r_i_glide_eff_state_penalty>
2.146

>  <i_glide_XP_PoseRank>
6

>  <chiral flag>
1

$$$$
