BACE_19.smi:1
 OpenBabel10031817133D
Structure written by MMmdl.
 76 77  0  0  1  0  0  0  0  0999 V2000
   24.8082   51.3453   -2.0022 C   0  0  0  0  0  0  0  0  0  0  0  0
   23.3494   51.0032   -1.6650 C   0  0  0  0  0  0  0  0  0  0  0  0
   22.5603   50.5065   -2.8880 C   0  0  0  0  0  0  0  0  0  0  0  0
   23.1742   49.2873   -3.5992 C   0  0  0  0  0  0  0  0  0  0  0  0
   22.3014   48.7297   -4.6209 N   0  0  0  0  0  0  0  0  0  0  0  0
   21.7985   49.3751   -5.6799 C   0  0  0  0  0  0  0  0  0  0  0  0
   22.0580   50.5503   -5.9327 O   0  0  0  0  0  0  0  0  0  0  0  0
   20.8317   48.5638   -6.5500 C   0  0  2  0  0  0  0  0  0  0  0  0
   19.3888   49.0804   -6.3840 C   0  0  0  0  0  0  0  0  0  0  0  0
   21.0133   47.0305   -6.3851 C   0  0  0  0  0  0  0  0  0  0  0  0
   19.7829   46.1460   -6.7279 C   0  0  1  0  0  0  0  0  0  0  0  0
   20.1074   44.6344   -6.9412 C   0  0  2  0  0  0  0  0  0  0  0  0
   21.3732   44.1327   -6.1950 C   0  0  0  0  0  0  0  0  0  0  0  0
   21.6801   42.6092   -6.2339 C   0  0  1  0  0  0  0  0  0  0  0  0
   20.4450   41.7298   -5.8805 C   0  0  0  0  0  0  0  0  0  0  0  0
   20.6037   40.1945   -5.9948 C   0  0  0  0  0  0  0  0  0  0  0  0
   20.5950   39.6790   -7.4298 C   0  0  0  0  0  0  0  0  0  0  0  0
   21.6301   38.8335   -7.8785 C   0  0  0  0  0  0  0  0  0  0  0  0
   21.6739   38.4312   -9.2270 C   0  0  0  0  0  0  0  0  0  0  0  0
   20.6998   38.8924  -10.1294 C   0  0  0  0  0  0  0  0  0  0  0  0
   19.6540   39.7344   -9.6990 C   0  0  0  0  0  0  0  0  0  0  0  0
   19.5834   40.0778   -8.3313 C   0  0  0  0  0  0  0  0  0  0  0  0
   18.6227   40.2341  -10.7119 C   0  0  0  0  0  0  0  0  0  0  0  0
   18.3575   42.0754  -10.6559 S   0  0  0  0  0  0  0  0  0  0  0  0
   17.4770   42.4538  -11.7724 O   0  0  0  0  0  0  0  0  0  0  0  0
   17.9872   42.4882   -9.2949 O   0  0  0  0  0  0  0  0  0  0  0  0
   20.0572   42.7254  -11.0027 C   0  0  0  0  0  0  0  0  0  0  0  0
   20.2322   44.2486  -10.7996 C   0  0  2  0  0  0  0  0  0  0  0  0
   20.7124   44.6477   -9.3940 C   0  0  0  0  0  0  0  0  0  0  0  0
   21.6841   45.3920   -9.2752 O   0  0  0  0  0  0  0  0  0  0  0  0
   20.0005   44.2053   -8.3469 N   0  0  0  0  0  0  0  0  0  0  0  0
   19.0496   45.1253  -11.2448 C   0  0  0  0  0  0  0  0  0  0  0  0
   22.4167   42.2117   -7.5244 C   0  0  0  0  0  0  0  0  0  0  0  0
   18.8012   46.2833   -5.7230 O   0  0  0  0  0  0  0  0  0  0  0  0
   21.1224   48.7852   -7.5795 H   0  0  0  0  0  0  0  0  0  0  0  0
   19.3055   46.5390   -7.6250 H   0  0  0  0  0  0  0  0  0  0  0  0
   19.2824   44.1132   -6.4684 H   0  0  0  0  0  0  0  0  0  0  0  0
   22.4101   42.4417   -5.4408 H   0  0  0  0  0  0  0  0  0  0  0  0
   21.0604   44.5275  -11.4496 H   0  0  0  0  0  0  0  0  0  0  0  0
   25.3422   51.6759   -1.1105 H   0  0  0  0  0  0  0  0  0  0  0  0
   24.8646   52.1496   -2.7353 H   0  0  0  0  0  0  0  0  0  0  0  0
   25.3385   50.4817   -2.4040 H   0  0  0  0  0  0  0  0  0  0  0  0
   23.3317   50.2489   -0.8771 H   0  0  0  0  0  0  0  0  0  0  0  0
   22.8686   51.8924   -1.2599 H   0  0  0  0  0  0  0  0  0  0  0  0
   21.5451   50.2545   -2.5782 H   0  0  0  0  0  0  0  0  0  0  0  0
   22.4758   51.3167   -3.6081 H   0  0  0  0  0  0  0  0  0  0  0  0
   24.1094   49.5612   -4.0832 H   0  0  0  0  0  0  0  0  0  0  0  0
   23.4149   48.5131   -2.8707 H   0  0  0  0  0  0  0  0  0  0  0  0
   22.0564   47.7485   -4.5367 H   0  0  0  0  0  0  0  0  0  0  0  0
   19.3369   50.1636   -6.4856 H   0  0  0  0  0  0  0  0  0  0  0  0
   18.9753   48.8502   -5.4042 H   0  0  0  0  0  0  0  0  0  0  0  0
   18.7352   48.6613   -7.1474 H   0  0  0  0  0  0  0  0  0  0  0  0
   21.8880   46.7231   -6.9548 H   0  0  0  0  0  0  0  0  0  0  0  0
   21.3067   46.8334   -5.3538 H   0  0  0  0  0  0  0  0  0  0  0  0
   22.2474   44.6873   -6.5368 H   0  0  0  0  0  0  0  0  0  0  0  0
   21.2586   44.4167   -5.1478 H   0  0  0  0  0  0  0  0  0  0  0  0
   20.1744   41.9578   -4.8484 H   0  0  0  0  0  0  0  0  0  0  0  0
   19.5775   42.0185   -6.4655 H   0  0  0  0  0  0  0  0  0  0  0  0
   21.5130   39.8775   -5.4825 H   0  0  0  0  0  0  0  0  0  0  0  0
   19.7764   39.7097   -5.4755 H   0  0  0  0  0  0  0  0  0  0  0  0
   22.4022   38.5072   -7.1988 H   0  0  0  0  0  0  0  0  0  0  0  0
   22.4665   37.7806   -9.5697 H   0  0  0  0  0  0  0  0  0  0  0  0
   20.7407   38.5660  -11.1584 H   0  0  0  0  0  0  0  0  0  0  0  0
   18.7642   40.6768   -7.9673 H   0  0  0  0  0  0  0  0  0  0  0  0
   18.9362   39.9867  -11.7255 H   0  0  0  0  0  0  0  0  0  0  0  0
   17.6692   39.7365  -10.5647 H   0  0  0  0  0  0  0  0  0  0  0  0
   20.7665   42.1686  -10.3978 H   0  0  0  0  0  0  0  0  0  0  0  0
   20.2851   42.4821  -12.0376 H   0  0  0  0  0  0  0  0  0  0  0  0
   19.2261   43.5803   -8.5589 H   0  0  0  0  0  0  0  0  0  0  0  0
   19.2856   46.1831  -11.1193 H   0  0  0  0  0  0  0  0  0  0  0  0
   18.1473   44.9267  -10.6667 H   0  0  0  0  0  0  0  0  0  0  0  0
   18.8166   44.9708  -12.2991 H   0  0  0  0  0  0  0  0  0  0  0  0
   21.7361   42.1079   -8.3648 H   0  0  0  0  0  0  0  0  0  0  0  0
   22.9330   41.2612   -7.3989 H   0  0  0  0  0  0  0  0  0  0  0  0
   23.1754   42.9469   -7.7965 H   0  0  0  0  0  0  0  0  0  0  0  0
   18.0096   45.8565   -6.0371 H   0  0  0  0  0  0  0  0  0  0  0  0
  1  2  1  0  0  0  0
  1 40  1  0  0  0  0
  1 41  1  0  0  0  0
  1 42  1  0  0  0  0
  2  3  1  0  0  0  0
  2 43  1  0  0  0  0
  2 44  1  0  0  0  0
  3  4  1  0  0  0  0
  3 45  1  0  0  0  0
  3 46  1  0  0  0  0
  4  5  1  0  0  0  0
  4 47  1  0  0  0  0
  4 48  1  0  0  0  0
  5  6  1  0  0  0  0
  5 49  1  0  0  0  0
  6  7  2  0  0  0  0
  6  8  1  0  0  0  0
  8 35  1  6  0  0  0
  8  9  1  0  0  0  0
  8 10  1  0  0  0  0
  9 50  1  0  0  0  0
  9 51  1  0  0  0  0
  9 52  1  0  0  0  0
 10 11  1  0  0  0  0
 10 53  1  0  0  0  0
 10 54  1  0  0  0  0
 11 36  1  6  0  0  0
 11 12  1  0  0  0  0
 11 34  1  0  0  0  0
 12 37  1  1  0  0  0
 12 31  1  0  0  0  0
 12 13  1  0  0  0  0
 13 14  1  0  0  0  0
 13 55  1  0  0  0  0
 13 56  1  0  0  0  0
 14 38  1  1  0  0  0
 14 15  1  0  0  0  0
 14 33  1  0  0  0  0
 15 16  1  0  0  0  0
 15 57  1  0  0  0  0
 15 58  1  0  0  0  0
 16 17  1  0  0  0  0
 16 59  1  0  0  0  0
 16 60  1  0  0  0  0
 17 22  1  0  0  0  0
 17 18  2  0  0  0  0
 18 19  1  0  0  0  0
 18 61  1  0  0  0  0
 19 20  2  0  0  0  0
 19 62  1  0  0  0  0
 20 21  1  0  0  0  0
 20 63  1  0  0  0  0
 21 22  2  0  0  0  0
 21 23  1  0  0  0  0
 22 64  1  0  0  0  0
 23 24  1  0  0  0  0
 23 65  1  0  0  0  0
 23 66  1  0  0  0  0
 24 25  2  0  0  0  0
 24 26  2  0  0  0  0
 24 27  1  0  0  0  0
 27 28  1  0  0  0  0
 27 67  1  0  0  0  0
 27 68  1  0  0  0  0
 28 39  1  6  0  0  0
 28 29  1  0  0  0  0
 28 32  1  0  0  0  0
 29 30  2  0  0  0  0
 29 31  1  0  0  0  0
 31 69  1  0  0  0  0
 32 70  1  0  0  0  0
 32 71  1  0  0  0  0
 32 72  1  0  0  0  0
 33 73  1  0  0  0  0
 33 74  1  0  0  0  0
 33 75  1  0  0  0  0
 34 76  1  0  0  0  0
M  END
>  <s_m_source_file>
BACE_19.smi

>  <i_m_source_file_index>
1

>  <i_lp_mmshare_version>
42013

>  <i_f3d_flags>
0

>  <s_epik_input>
W0NIM11bQ0gyXVtDSDJdW0NIMl1bTkhdQyg9TylbQ0BIXShbQ0gzXSlbQ0gyXVtDQEhdKFtPSF0pW0NASF0oW0NIMl1bQ0BIXShbQ0gzXSlbQ0gyXVtDSDJdMSlbTkhdQyg9TylbQ0BIXShbQ0gzXSlbQ0gyXVMoPU8pKD1PKVtDSDJdYyhbY0hdMilbY0hdW2NIXVtjSF1jMTI=

>  <s_epik_cmdline>
J2VwaWtfcHl0aG9uJywgJy1waCcsICc3LjAnLCAnLXRuJywgJzgnLCAnLW1hJywgJzIwMCcsICctaW1hZScsICc8aW5maWxlLm1hZT4nLCAnLW9tYWUnLCAnPG91dGZpbGUubWFlPic=

>  <r_lp_tautomer_probability>
1

>  <r_epik_Ionization_Penalty>
0

>  <r_epik_Ionization_Penalty_Charging>
0

>  <r_epik_Ionization_Penalty_Neutral>
0

>  <r_epik_State_Penalty>
-0

>  <r_epik_Charging_Adjusted_Penalty>
0

>  <i_epik_Tot_Q>
0

>  <i_epik_Tot_abs_Q>
0

>  <s_lp_Force_Field>
OPLS_2005

>  <r_lp_Energy>
20.3216

>  <b_lp_Chiralities_Consistent>
1

>  <s_lp_Variant>
BACE_19.smi:1-1

>  <chiral flag>
1

>  <version>
0

>  <r_i_glide_lipo>
-1.11123

>  <r_i_glide_hbond>
-0.357278

>  <r_i_glide_metal>
-0

>  <r_i_glide_rewards>
-0.0961787

>  <r_i_glide_erotb>
0.582966

>  <r_i_glide_esite>
-0.165645

>  <s_i_glide_gridfile>
second_dock_grid_2

>  <i_i_glide_lignum>
36

>  <i_i_glide_rotatable_bonds>
9

>  <r_i_docking_score>
-3.55021

>  <r_i_glide_ligand_efficiency>
-0.104418

>  <r_i_glide_ligand_efficiency_sa>
-0.338274

>  <r_i_glide_ligand_efficiency_ln>
-0.784341

>  <r_glide_XP_GScore>
-3.55021

>  <r_i_glide_gscore>
-3.55021

>  <r_i_glide_evdw>
-33.1957

>  <r_i_glide_ecoul>
-8.8252

>  <r_i_glide_energy>
-42.0209

>  <r_i_glide_einternal>
10.8777

>  <r_i_glide_emodel>
-54.0324

>  <r_glide_XP_HBond>
-0.585493

>  <i_i_glide_confnum>
1

>  <i_i_glide_posenum>
34

>  <r_i_glide_eff_state_penalty>
-0

>  <i_glide_XP_PoseRank>
6

>  <chiral flag>
1

$$$$
