BACE_11.smi:1
 OpenBabel10031817133D
Structure written by MMmdl.
 81 83  0  0  1  0  0  0  0  0999 V2000
   15.0956   47.0578  -13.0386 C   0  0  0  0  0  0  0  0  0  0  0  0
   15.9335   46.3747  -11.9394 C   0  0  1  0  0  0  0  0  0  0  0  0
   15.3302   45.0666  -11.3804 C   0  0  0  0  0  0  0  0  0  0  0  0
   14.1108   44.9014  -11.3731 O   0  0  0  0  0  0  0  0  0  0  0  0
   16.1853   44.1575  -10.8786 N   0  0  0  0  0  0  0  0  0  0  0  0
   15.8929   43.0168  -10.0037 C   0  0  1  0  0  0  0  0  0  0  0  0
   15.7485   43.5100   -8.5391 C   0  0  0  0  0  0  0  0  0  0  0  0
   17.0446   44.0966   -8.0036 C   0  0  0  0  0  0  0  0  0  0  0  0
   17.9441   43.3049   -7.2568 C   0  0  0  0  0  0  0  0  0  0  0  0
   19.1718   43.8481   -6.8280 C   0  0  0  0  0  0  0  0  0  0  0  0
   19.5136   45.1761   -7.1516 C   0  0  0  0  0  0  0  0  0  0  0  0
   18.6136   45.9748   -7.8945 C   0  0  0  0  0  0  0  0  0  0  0  0
   17.3770   45.4340   -8.2885 C   0  0  0  0  0  0  0  0  0  0  0  0
   18.8494   47.2663   -8.2943 O   0  0  0  0  0  0  0  0  0  0  0  0
   20.0915   47.8764   -8.0119 C   0  0  0  0  0  0  0  0  0  0  0  0
   20.0568   49.2855   -8.6266 C   0  0  0  0  0  0  0  0  0  0  0  0
   20.1690   49.3210  -10.1649 C   0  0  0  0  0  0  0  0  0  0  0  0
   18.8703   49.6715  -10.9321 C   0  0  0  0  0  0  0  0  0  0  0  0
   17.8159   48.5503  -11.1152 C   0  0  0  0  0  0  0  0  0  0  0  0
   18.2440   47.3816  -12.0328 C   0  0  0  0  0  0  0  0  0  0  0  0
   19.3858   47.3862  -12.4982 O   0  0  0  0  0  0  0  0  0  0  0  0
   17.3717   46.3695  -12.3129 N   0  0  0  0  0  0  0  0  0  0  0  0
   17.8459   45.2520  -13.1448 C   0  0  0  0  0  0  0  0  0  0  0  0
   14.7303   42.0941  -10.4633 C   0  0  1  0  0  0  0  0  0  0  0  0
   14.7452   40.6587   -9.8787 C   0  0  0  0  0  0  0  0  0  0  0  0
   14.8761   40.6390   -8.3997 N   0  3  0  0  0  0  0  0  0  0  0  0
   15.6503   39.5146   -7.8174 C   0  0  0  0  0  0  0  0  0  0  0  0
   16.8895   39.1627   -8.6219 C   0  0  0  0  0  0  0  0  0  0  0  0
   17.3990   37.8457   -8.6182 C   0  0  0  0  0  0  0  0  0  0  0  0
   18.5505   37.5314   -9.3696 C   0  0  0  0  0  0  0  0  0  0  0  0
   19.2010   38.5301  -10.1190 C   0  0  0  0  0  0  0  0  0  0  0  0
   18.6972   39.8498  -10.1342 C   0  0  0  0  0  0  0  0  0  0  0  0
   17.5315   40.1471   -9.4010 C   0  0  0  0  0  0  0  0  0  0  0  0
   19.4121   40.9558  -10.9015 C   0  0  0  0  0  0  0  0  0  0  0  0
   18.4241   41.8861  -11.6152 C   0  0  0  0  0  0  0  0  0  0  0  0
   20.4625   40.3918  -11.8726 C   0  0  0  0  0  0  0  0  0  0  0  0
   13.5422   42.7113  -10.0278 O   0  0  0  0  0  0  0  0  0  0  0  0
   15.8129   47.0152  -11.0659 H   0  0  0  0  0  0  0  0  0  0  0  0
   16.7967   42.4060  -10.0468 H   0  0  0  0  0  0  0  0  0  0  0  0
   14.7080   42.0407  -11.5499 H   0  0  0  0  0  0  0  0  0  0  0  0
   14.0749   47.2476  -12.7040 H   0  0  0  0  0  0  0  0  0  0  0  0
   15.0389   46.4408  -13.9358 H   0  0  0  0  0  0  0  0  0  0  0  0
   15.5255   48.0209  -13.3234 H   0  0  0  0  0  0  0  0  0  0  0  0
   17.1650   44.3833  -10.9690 H   0  0  0  0  0  0  0  0  0  0  0  0
   14.9541   44.2534   -8.4700 H   0  0  0  0  0  0  0  0  0  0  0  0
   15.4483   42.6971   -7.8770 H   0  0  0  0  0  0  0  0  0  0  0  0
   17.7055   42.2790   -7.0254 H   0  0  0  0  0  0  0  0  0  0  0  0
   19.8627   43.2364   -6.2661 H   0  0  0  0  0  0  0  0  0  0  0  0
   20.4730   45.5567   -6.8300 H   0  0  0  0  0  0  0  0  0  0  0  0
   16.6924   46.0512   -8.8504 H   0  0  0  0  0  0  0  0  0  0  0  0
   20.2274   47.9469   -6.9315 H   0  0  0  0  0  0  0  0  0  0  0  0
   20.9204   47.2963   -8.4199 H   0  0  0  0  0  0  0  0  0  0  0  0
   19.1677   49.8188   -8.2908 H   0  0  0  0  0  0  0  0  0  0  0  0
   20.8992   49.8414   -8.2146 H   0  0  0  0  0  0  0  0  0  0  0  0
   20.8886   50.0995  -10.4111 H   0  0  0  0  0  0  0  0  0  0  0  0
   20.6233   48.4038  -10.5377 H   0  0  0  0  0  0  0  0  0  0  0  0
   18.3969   50.5267  -10.4490 H   0  0  0  0  0  0  0  0  0  0  0  0
   19.1468   50.0338  -11.9242 H   0  0  0  0  0  0  0  0  0  0  0  0
   17.5151   48.1688  -10.1404 H   0  0  0  0  0  0  0  0  0  0  0  0
   16.9275   49.0101  -11.5529 H   0  0  0  0  0  0  0  0  0  0  0  0
   18.4785   44.5885  -12.5594 H   0  0  0  0  0  0  0  0  0  0  0  0
   18.4296   45.5937  -14.0014 H   0  0  0  0  0  0  0  0  0  0  0  0
   17.0230   44.6676  -13.5534 H   0  0  0  0  0  0  0  0  0  0  0  0
   13.7970   40.1710  -10.1087 H   0  0  0  0  0  0  0  0  0  0  0  0
   15.5205   40.0445  -10.3433 H   0  0  0  0  0  0  0  0  0  0  0  0
   15.2684   41.5153   -8.0789 H   0  0  0  0  0  0  0  0  0  0  0  0
   15.9779   39.7988   -6.8231 H   0  0  0  0  0  0  0  0  0  0  0  0
   15.0275   38.6334   -7.6729 H   0  0  0  0  0  0  0  0  0  0  0  0
   16.9191   37.0714   -8.0353 H   0  0  0  0  0  0  0  0  0  0  0  0
   18.9516   36.5270   -9.3650 H   0  0  0  0  0  0  0  0  0  0  0  0
   20.0920   38.2800  -10.6760 H   0  0  0  0  0  0  0  0  0  0  0  0
   17.1368   41.1517   -9.4257 H   0  0  0  0  0  0  0  0  0  0  0  0
   19.9501   41.5668  -10.1750 H   0  0  0  0  0  0  0  0  0  0  0  0
   17.7063   42.3183  -10.9187 H   0  0  0  0  0  0  0  0  0  0  0  0
   17.8719   41.3426  -12.3786 H   0  0  0  0  0  0  0  0  0  0  0  0
   18.9403   42.7096  -12.1088 H   0  0  0  0  0  0  0  0  0  0  0  0
   21.1765   39.7577  -11.3465 H   0  0  0  0  0  0  0  0  0  0  0  0
   21.0258   41.1937  -12.3504 H   0  0  0  0  0  0  0  0  0  0  0  0
   20.0124   39.7946  -12.6647 H   0  0  0  0  0  0  0  0  0  0  0  0
   13.0442   42.0918   -9.5092 H   0  0  0  0  0  0  0  0  0  0  0  0
   13.9504   40.5641   -8.0025 H   0  0  0  0  0  0  0  0  0  0  0  0
  1  2  1  0  0  0  0
  1 41  1  0  0  0  0
  1 42  1  0  0  0  0
  1 43  1  0  0  0  0
  2 38  1  1  0  0  0
  2 22  1  0  0  0  0
  2  3  1  0  0  0  0
  3  4  2  0  0  0  0
  3  5  1  0  0  0  0
  5  6  1  0  0  0  0
  5 44  1  0  0  0  0
  6 39  1  6  0  0  0
  6  7  1  0  0  0  0
  6 24  1  0  0  0  0
  7  8  1  0  0  0  0
  7 45  1  0  0  0  0
  7 46  1  0  0  0  0
  8 13  1  0  0  0  0
  8  9  2  0  0  0  0
  9 10  1  0  0  0  0
  9 47  1  0  0  0  0
 10 11  2  0  0  0  0
 10 48  1  0  0  0  0
 11 12  1  0  0  0  0
 11 49  1  0  0  0  0
 12 13  2  0  0  0  0
 12 14  1  0  0  0  0
 13 50  1  0  0  0  0
 14 15  1  0  0  0  0
 15 16  1  0  0  0  0
 15 51  1  0  0  0  0
 15 52  1  0  0  0  0
 16 17  1  0  0  0  0
 16 53  1  0  0  0  0
 16 54  1  0  0  0  0
 17 18  1  0  0  0  0
 17 55  1  0  0  0  0
 17 56  1  0  0  0  0
 18 19  1  0  0  0  0
 18 57  1  0  0  0  0
 18 58  1  0  0  0  0
 19 20  1  0  0  0  0
 19 59  1  0  0  0  0
 19 60  1  0  0  0  0
 20 21  2  0  0  0  0
 20 22  1  0  0  0  0
 22 23  1  0  0  0  0
 23 61  1  0  0  0  0
 23 62  1  0  0  0  0
 23 63  1  0  0  0  0
 24 40  1  6  0  0  0
 24 25  1  0  0  0  0
 24 37  1  0  0  0  0
 25 26  1  0  0  0  0
 25 64  1  0  0  0  0
 25 65  1  0  0  0  0
 26 27  1  0  0  0  0
 26 66  1  0  0  0  0
 26 81  1  0  0  0  0
 27 28  1  0  0  0  0
 27 67  1  0  0  0  0
 27 68  1  0  0  0  0
 28 33  1  0  0  0  0
 28 29  2  0  0  0  0
 29 30  1  0  0  0  0
 29 69  1  0  0  0  0
 30 31  2  0  0  0  0
 30 70  1  0  0  0  0
 31 32  1  0  0  0  0
 31 71  1  0  0  0  0
 32 33  2  0  0  0  0
 32 34  1  0  0  0  0
 33 72  1  0  0  0  0
 34 35  1  0  0  0  0
 34 36  1  0  0  0  0
 34 73  1  0  0  0  0
 35 74  1  0  0  0  0
 35 75  1  0  0  0  0
 35 76  1  0  0  0  0
 36 77  1  0  0  0  0
 36 78  1  0  0  0  0
 36 79  1  0  0  0  0
 37 80  1  0  0  0  0
M  CHG  1  26   1
M  END
>  <s_m_source_file>
BACE_11.smi

>  <i_m_source_file_index>
1

>  <i_lp_mmshare_version>
42013

>  <i_f3d_flags>
0

>  <s_epik_input>
YzEyW2NIXVtjSF1bY0hdYyhbY0hdMilPW0NIMl1bQ0gyXVtDSDJdW0NIMl1bQ0gyXUMoPU8pTihbQ0gzXSlbQ0BASF0oW0NIM10pQyg9TylbTkhdW0NAQEhdKFtDSDJdMSlbQ0BIXShbT0hdKVtDSDJdW05IXVtDSDJdYzNbY0hdW2NIXVtjSF1jKFtjSF0zKVtDSF0oW0NIM10pW0NIM10=

>  <s_epik_cmdline>
J2VwaWtfcHl0aG9uJywgJy1waCcsICc3LjAnLCAnLXRuJywgJzgnLCAnLW1hJywgJzIwMCcsICctaW1hZScsICc8aW5maWxlLm1hZT4nLCAnLW9tYWUnLCAnPG91dGZpbGUubWFlPic=

>  <r_lp_tautomer_probability>
1

>  <r_epik_Ionization_Penalty>
0.021

>  <r_epik_Ionization_Penalty_Charging>
0.021

>  <r_epik_Ionization_Penalty_Neutral>
0

>  <r_epik_State_Penalty>
0.0169

>  <r_epik_Charging_Adjusted_Penalty>
0.0378979

>  <i_epik_Tot_Q>
1

>  <i_epik_Tot_abs_Q>
1

>  <s_lp_Force_Field>
OPLS_2005

>  <r_lp_Energy>
36.6322

>  <b_lp_Chiralities_Consistent>
1

>  <s_lp_Variant>
BACE_11.smi:1-1

>  <chiral flag>
1

>  <version>
0

>  <r_i_glide_lipo>
-0.730831

>  <r_i_glide_hbond>
-0.32

>  <r_i_glide_metal>
-0

>  <r_i_glide_rewards>
-0.348713

>  <r_i_glide_erotb>
0.39279

>  <r_i_glide_esite>
-0.036294

>  <s_i_glide_gridfile>
second_dock_grid_2

>  <i_i_glide_lignum>
22

>  <i_i_glide_rotatable_bonds>
7

>  <r_i_docking_score>
-4.16846

>  <r_i_glide_ligand_efficiency>
-0.112661

>  <r_i_glide_ligand_efficiency_sa>
-0.375412

>  <r_i_glide_ligand_efficiency_ln>
-0.904042

>  <r_glide_XP_GScore>
-4.18536

>  <r_i_glide_gscore>
-4.18536

>  <r_i_glide_evdw>
-33.1878

>  <r_i_glide_ecoul>
-11.8574

>  <r_i_glide_energy>
-45.0451

>  <r_i_glide_einternal>
10.796

>  <r_i_glide_emodel>
-58.1425

>  <r_glide_XP_HBond>
-0.319272

>  <i_i_glide_confnum>
1

>  <i_i_glide_posenum>
37

>  <r_i_glide_eff_state_penalty>
0.0169

>  <i_glide_XP_PoseRank>
9

>  <chiral flag>
1

$$$$
