BACE_11.smi:1
                    3D
 Structure written by MMmdl.
 81 83  0  0  1  0            999 V2000
   -1.5974   -0.6773    3.8834 C   0  0  0  0  0  0
   -2.6012    0.0369    2.9582 C   0  0  1  0  0  0
   -1.9930    0.6272    1.6672 C   0  0  0  0  0  0
   -0.8932    1.1766    1.7173 O   0  0  0  0  0  0
   -2.7226    0.5676    0.5372 N   0  0  0  0  0  0
   -2.4638    1.2536   -0.7341 C   0  0  1  0  0  0
   -2.7986    2.7628   -0.6129 C   0  0  0  0  0  0
   -4.2469    3.0185   -0.2186 C   0  0  0  0  0  0
   -5.2155    3.2805   -1.2084 C   0  0  0  0  0  0
   -6.5611    3.4749   -0.8432 C   0  0  0  0  0  0
   -6.9499    3.3876    0.5078 C   0  0  0  0  0  0
   -5.9875    3.1127    1.5105 C   0  0  0  0  0  0
   -4.6388    2.9629    1.1354 C   0  0  0  0  0  0
   -6.2749    2.9619    2.8487 O   0  0  0  0  0  0
   -7.6337    2.9569    3.2554 C   0  0  0  0  0  0
   -7.7284    2.4928    4.7175 C   0  0  0  0  0  0
   -7.5738    0.9688    4.9148 C   0  0  0  0  0  0
   -6.2496    0.5099    5.5652 C   0  0  0  0  0  0
   -4.9952    0.5060    4.6620 C   0  0  0  0  0  0
   -4.9598   -0.5936    3.5781 C   0  0  0  0  0  0
   -5.9506   -1.3117    3.4316 O   0  0  0  0  0  0
   -3.8430   -0.7630    2.8196 N   0  0  0  0  0  0
   -3.8013   -1.9015    1.8885 C   0  0  0  0  0  0
   -1.0568    0.9759   -1.3338 C   0  0  1  0  0  0
   -0.6642   -0.5168   -1.3657 C   0  0  0  0  0  0
    0.7389   -0.6915   -1.7912 N   0  3  0  0  0  0
    1.1840   -2.0971   -1.8287 C   0  0  0  0  0  0
    2.6198   -2.1886   -2.3040 C   0  0  0  0  0  0
    2.9019   -2.3781   -3.6726 C   0  0  0  0  0  0
    4.2363   -2.4650   -4.1117 C   0  0  0  0  0  0
    5.2919   -2.3608   -3.1860 C   0  0  0  0  0  0
    5.0205   -2.1661   -1.8136 C   0  0  0  0  0  0
    3.6798   -2.0816   -1.3792 C   0  0  0  0  0  0
    6.1573   -2.0524   -0.8053 C   0  0  0  0  0  0
    7.0682   -0.8510   -1.1049 C   0  0  0  0  0  0
    6.9585   -3.3599   -0.7092 C   0  0  0  0  0  0
   -1.0495    1.4324   -2.6736 O   0  0  0  0  0  0
   -2.8404    0.9606    3.4805 H   0  0  0  0  0  0
   -3.1883    0.8201   -1.4256 H   0  0  0  0  0  0
   -0.3030    1.5396   -0.7828 H   0  0  0  0  0  0
   -0.7134   -0.0664    4.0688 H   0  0  0  0  0  0
   -1.2623   -1.6206    3.4519 H   0  0  0  0  0  0
   -2.0438   -0.8990    4.8532 H   0  0  0  0  0  0
   -3.6098    0.0883    0.5998 H   0  0  0  0  0  0
   -2.1427    3.2397    0.1166 H   0  0  0  0  0  0
   -2.6069    3.2702   -1.5590 H   0  0  0  0  0  0
   -4.9321    3.3286   -2.2496 H   0  0  0  0  0  0
   -7.3008    3.6788   -1.6033 H   0  0  0  0  0  0
   -7.9920    3.5303    0.7495 H   0  0  0  0  0  0
   -3.9030    2.7662    1.9005 H   0  0  0  0  0  0
   -8.0315    3.9687    3.1639 H   0  0  0  0  0  0
   -8.2409    2.3034    2.6273 H   0  0  0  0  0  0
   -7.0250    3.0460    5.3408 H   0  0  0  0  0  0
   -8.7183    2.7728    5.0795 H   0  0  0  0  0  0
   -8.3740    0.6504    5.5838 H   0  0  0  0  0  0
   -7.7659    0.4369    3.9837 H   0  0  0  0  0  0
   -6.0535    1.1313    6.4396 H   0  0  0  0  0  0
   -6.3906   -0.4959    5.9636 H   0  0  0  0  0  0
   -4.8707    1.4844    4.2037 H   0  0  0  0  0  0
   -4.1302    0.3582    5.3089 H   0  0  0  0  0  0
   -4.4777   -1.7345    1.0490 H   0  0  0  0  0  0
   -4.0955   -2.8282    2.3841 H   0  0  0  0  0  0
   -2.8026   -2.0710    1.4856 H   0  0  0  0  0  0
   -0.7601   -0.9647   -0.3769 H   0  0  0  0  0  0
   -1.3271   -1.0733   -2.0301 H   0  0  0  0  0  0
    0.8447   -0.2947   -2.7143 H   0  0  0  0  0  0
    1.0970   -2.5396   -0.8353 H   0  0  0  0  0  0
    0.5391   -2.6716   -2.4953 H   0  0  0  0  0  0
    2.0975   -2.4592   -4.3892 H   0  0  0  0  0  0
    4.4517   -2.6125   -5.1599 H   0  0  0  0  0  0
    6.3115   -2.4319   -3.5353 H   0  0  0  0  0  0
    3.4609   -1.9348   -0.3314 H   0  0  0  0  0  0
    5.7128   -1.8774    0.1755 H   0  0  0  0  0  0
    6.4988    0.0789   -1.1202 H   0  0  0  0  0  0
    7.5667   -0.9523   -2.0694 H   0  0  0  0  0  0
    7.8429   -0.7488   -0.3445 H   0  0  0  0  0  0
    6.3117   -4.1969   -0.4445 H   0  0  0  0  0  0
    7.7328   -3.2891    0.0550 H   0  0  0  0  0  0
    7.4484   -3.6022   -1.6526 H   0  0  0  0  0  0
   -1.7498    1.0057   -3.1442 H   0  0  0  0  0  0
    1.3348   -0.1830   -1.1536 H   0  0  0  0  0  0
  1  2  1  0  0  0
  1 41  1  0  0  0
  1 42  1  0  0  0
  1 43  1  0  0  0
  2 38  1  0  0  0
  2 22  1  0  0  0
  2  3  1  0  0  0
  3  4  2  0  0  0
  3  5  1  0  0  0
  5  6  1  0  0  0
  5 44  1  0  0  0
  6 39  1  0  0  0
  6  7  1  0  0  0
  6 24  1  0  0  0
  7  8  1  0  0  0
  7 45  1  0  0  0
  7 46  1  0  0  0
  8 13  1  0  0  0
  8  9  2  0  0  0
  9 10  1  0  0  0
  9 47  1  0  0  0
 10 11  2  0  0  0
 10 48  1  0  0  0
 11 12  1  0  0  0
 11 49  1  0  0  0
 12 13  2  0  0  0
 12 14  1  0  0  0
 13 50  1  0  0  0
 14 15  1  0  0  0
 15 16  1  0  0  0
 15 51  1  0  0  0
 15 52  1  0  0  0
 16 17  1  0  0  0
 16 53  1  0  0  0
 16 54  1  0  0  0
 17 18  1  0  0  0
 17 55  1  0  0  0
 17 56  1  0  0  0
 18 19  1  0  0  0
 18 57  1  0  0  0
 18 58  1  0  0  0
 19 20  1  0  0  0
 19 59  1  0  0  0
 19 60  1  0  0  0
 20 21  2  0  0  0
 20 22  1  0  0  0
 22 23  1  0  0  0
 23 61  1  0  0  0
 23 62  1  0  0  0
 23 63  1  0  0  0
 24 40  1  0  0  0
 24 25  1  0  0  0
 24 37  1  0  0  0
 25 26  1  0  0  0
 25 64  1  0  0  0
 25 65  1  0  0  0
 26 27  1  0  0  0
 26 66  1  0  0  0
 26 81  1  0  0  0
 27 28  1  0  0  0
 27 67  1  0  0  0
 27 68  1  0  0  0
 28 33  1  0  0  0
 28 29  2  0  0  0
 29 30  1  0  0  0
 29 69  1  0  0  0
 30 31  2  0  0  0
 30 70  1  0  0  0
 31 32  1  0  0  0
 31 71  1  0  0  0
 32 33  2  0  0  0
 32 34  1  0  0  0
 33 72  1  0  0  0
 34 35  1  0  0  0
 34 36  1  0  0  0
 34 73  1  0  0  0
 35 74  1  0  0  0
 35 75  1  0  0  0
 35 76  1  0  0  0
 36 77  1  0  0  0
 36 78  1  0  0  0
 36 79  1  0  0  0
 37 80  1  0  0  0
M  CHG  1  26   1
M  END
> <i_f3d_flags>
0

> <chiral flag>
1

> <version>
0

> <s_i_glide_gridfile>
base1a_gride_6

> <i_i_glide_lignum>
23

> <i_i_glide_rotatable_bonds>
7

> <r_i_docking_score>
-0.994707845144327

> <r_i_glide_ligand_efficiency>
-0.0268839958147115

> <r_i_glide_ligand_efficiency_sa>
-0.089583438205514

> <r_i_glide_ligand_efficiency_ln>
-0.215728812351355

> <r_glide_XP_GScore>
-3.11130784514433

> <r_i_glide_gscore>
-3.11130784514433

> <r_i_glide_evdw>
-29.6870002746582

> <r_i_glide_ecoul>
-7.54260587692261

> <r_i_glide_energy>
-37.2296061515808

> <r_i_glide_einternal>
0

> <r_i_glide_emodel>
-46.5374962050316

> <r_glide_XP_HBond>
-1.14566081718382

> <i_i_glide_confnum>
1

> <i_i_glide_posenum>
2

> <r_i_glide_eff_state_penalty>
2.1166

> <i_glide_XP_PoseRank>
1

> <s_m_source_file>
glide-dock_pose_2-0012_raw.maegz

> <i_m_source_file_index>
1

> <i_lp_mmshare_version>
42013

> <s_epik_input>
YzEyW2NIXVtjSF1bY0hdYyhbY0hdMilPW0NIMl1bQ0gyXVtDSDJdW0NIMl1bQ0gyXUMoPU8pTihbQ0gzXSlbQ0BASF0oW0NIM10pQyg9TylbTkhdW0NAQEhdKFtDSDJdMSlbQ0BIXShbT0hdKVtDSDJdW05IXVtDSDJdYzNbY0hdW2NIXVtjSF1jKFtjSF0zKVtDSF0oW0NIM10pW0NIM10=

> <s_epik_cmdline>
J2VwaWtfcHl0aG9uJywgJy1waCcsICc3LjAnLCAnLXRuJywgJzgnLCAnLW1hJywgJzIwMCcsICctaW1hZScsICc8aW5maWxlLm1hZT4nLCAnLW9tYWUnLCAnPG91dGZpbGUubWFlPic=

> <r_lp_tautomer_probability>
1

> <r_epik_Ionization_Penalty>
0.0210188

> <r_epik_Ionization_Penalty_Charging>
0.0210181

> <r_epik_Ionization_Penalty_Neutral>
6.5275e-07

> <r_epik_State_Penalty>
0.0168797

> <r_epik_Charging_Adjusted_Penalty>
0.0378979

> <i_epik_Tot_Q>
1

> <i_epik_Tot_abs_Q>
1

> <i_f3d_flags>
0

> <s_lp_Force_Field>
OPLS_2005

> <r_lp_Energy>
36.6322

> <b_lp_Chiralities_Consistent>
1

> <s_lp_Variant>
BACE_11.smi:1-1

$$$$
BACE_11.smi:1
                    3D
 Structure written by MMmdl.
 80 82  0  0  1  0            999 V2000
   -1.9699   -1.0817   -4.0000 C   0  0  0  0  0  0
   -1.3602    0.3256   -3.8577 C   0  0  1  0  0  0
   -1.4263    0.9203   -2.4336 C   0  0  0  0  0  0
   -2.4712    0.8188   -1.7916 O   0  0  0  0  0  0
   -0.3545    1.5907   -1.9720 N   0  0  0  0  0  0
   -0.2676    2.4196   -0.7635 C   0  0  1  0  0  0
   -1.0188    3.7605   -0.9590 C   0  0  0  0  0  0
   -0.5084    4.5630   -2.1478 C   0  0  0  0  0  0
    0.4559    5.5734   -1.9597 C   0  0  0  0  0  0
    0.9495    6.2904   -3.0660 C   0  0  0  0  0  0
    0.4996    5.9883   -4.3663 C   0  0  0  0  0  0
   -0.4591    4.9650   -4.5694 C   0  0  0  0  0  0
   -0.9746    4.2850   -3.4497 C   0  0  0  0  0  0
   -0.9255    4.5624   -5.8009 O   0  0  0  0  0  0
   -0.3569    5.1363   -6.9668 C   0  0  0  0  0  0
   -0.8044    4.3334   -8.1984 C   0  0  0  0  0  0
   -0.0552    2.9970   -8.3921 C   0  0  0  0  0  0
   -0.8834    1.7221   -8.1181 C   0  0  0  0  0  0
   -1.1415    1.3654   -6.6363 C   0  0  0  0  0  0
    0.0879    0.8642   -5.8472 C   0  0  0  0  0  0
    1.1901    0.8762   -6.3990 O   0  0  0  0  0  0
   -0.0635    0.4068   -4.5749 N   0  0  0  0  0  0
    1.1073   -0.1818   -3.9070 C   0  0  0  0  0  0
   -0.6642    1.6793    0.5461 C   0  0  1  0  0  0
   -0.1214    0.2418    0.7038 C   0  0  0  0  0  0
    1.3128    0.1582    0.4378 N   0  0  0  0  0  0
    1.8312   -1.2046    0.4801 C   0  0  0  0  0  0
    3.2982   -1.2724    0.1028 C   0  0  0  0  0  0
    4.2317   -1.8613    0.9798 C   0  0  0  0  0  0
    5.5914   -1.9292    0.6201 C   0  0  0  0  0  0
    6.0220   -1.4112   -0.6167 C   0  0  0  0  0  0
    5.0947   -0.8202   -1.5030 C   0  0  0  0  0  0
    3.7342   -0.7568   -1.1357 C   0  0  0  0  0  0
    5.5461   -0.2533   -2.8432 C   0  0  0  0  0  0
    6.1117   -1.3487   -3.7600 C   0  0  0  0  0  0
    6.5383    0.9060   -2.6630 C   0  0  0  0  0  0
   -0.2354    2.4178    1.6729 O   0  0  0  0  0  0
   -2.0729    0.9800   -4.3544 H   0  0  0  0  0  0
    0.7928    2.6626   -0.6802 H   0  0  0  0  0  0
   -1.7514    1.6326    0.6108 H   0  0  0  0  0  0
   -2.9628   -1.1382   -3.5526 H   0  0  0  0  0  0
   -1.3465   -1.8341   -3.5160 H   0  0  0  0  0  0
   -2.0724   -1.3626   -5.0484 H   0  0  0  0  0  0
    0.4565    1.6120   -2.5732 H   0  0  0  0  0  0
   -2.0872    3.5810   -1.0852 H   0  0  0  0  0  0
   -0.9248    4.3754   -0.0633 H   0  0  0  0  0  0
    0.8223    5.7990   -0.9689 H   0  0  0  0  0  0
    1.6855    7.0670   -2.9186 H   0  0  0  0  0  0
    0.9083    6.5513   -5.1915 H   0  0  0  0  0  0
   -1.7156    3.5148   -3.6023 H   0  0  0  0  0  0
   -0.7006    6.1679   -7.0532 H   0  0  0  0  0  0
    0.7330    5.1517   -6.9219 H   0  0  0  0  0  0
   -1.8845    4.1838   -8.1862 H   0  0  0  0  0  0
   -0.6075    4.9519   -9.0749 H   0  0  0  0  0  0
    0.2522    2.9503   -9.4374 H   0  0  0  0  0  0
    0.8783    2.9923   -7.8306 H   0  0  0  0  0  0
   -1.8412    1.8081   -8.6321 H   0  0  0  0  0  0
   -0.3856    0.8765   -8.5950 H   0  0  0  0  0  0
   -1.5871    2.2173   -6.1275 H   0  0  0  0  0  0
   -1.8886    0.5717   -6.6191 H   0  0  0  0  0  0
    1.8388    0.5919   -3.6704 H   0  0  0  0  0  0
    1.5925   -0.9262   -4.5406 H   0  0  0  0  0  0
    0.8432   -0.6914   -2.9798 H   0  0  0  0  0  0
   -0.3435   -0.1345    1.7033 H   0  0  0  0  0  0
   -0.6532   -0.4137    0.0139 H   0  0  0  0  0  0
    1.5127    0.5672   -0.4693 H   0  0  0  0  0  0
    1.6872   -1.6296    1.4742 H   0  0  0  0  0  0
    1.2777   -1.8374   -0.2151 H   0  0  0  0  0  0
    3.9095   -2.2624    1.9297 H   0  0  0  0  0  0
    6.3056   -2.3796    1.2936 H   0  0  0  0  0  0
    7.0675   -1.4699   -0.8812 H   0  0  0  0  0  0
    3.0173   -0.3074   -1.8052 H   0  0  0  0  0  0
    4.6663    0.1560   -3.3423 H   0  0  0  0  0  0
    5.3774   -2.1379   -3.9248 H   0  0  0  0  0  0
    7.0052   -1.8075   -3.3357 H   0  0  0  0  0  0
    6.3811   -0.9422   -4.7353 H   0  0  0  0  0  0
    6.1061    1.6989   -2.0514 H   0  0  0  0  0  0
    6.8080    1.3428   -3.6249 H   0  0  0  0  0  0
    7.4594    0.5774   -2.1808 H   0  0  0  0  0  0
    0.7095    2.4070    1.6929 H   0  0  0  0  0  0
  1  2  1  0  0  0
  1 41  1  0  0  0
  1 42  1  0  0  0
  1 43  1  0  0  0
  2 38  1  0  0  0
  2 22  1  0  0  0
  2  3  1  0  0  0
  3  4  2  0  0  0
  3  5  1  0  0  0
  5  6  1  0  0  0
  5 44  1  0  0  0
  6 39  1  0  0  0
  6  7  1  0  0  0
  6 24  1  0  0  0
  7  8  1  0  0  0
  7 45  1  0  0  0
  7 46  1  0  0  0
  8 13  1  0  0  0
  8  9  2  0  0  0
  9 10  1  0  0  0
  9 47  1  0  0  0
 10 11  2  0  0  0
 10 48  1  0  0  0
 11 12  1  0  0  0
 11 49  1  0  0  0
 12 13  2  0  0  0
 12 14  1  0  0  0
 13 50  1  0  0  0
 14 15  1  0  0  0
 15 16  1  0  0  0
 15 51  1  0  0  0
 15 52  1  0  0  0
 16 17  1  0  0  0
 16 53  1  0  0  0
 16 54  1  0  0  0
 17 18  1  0  0  0
 17 55  1  0  0  0
 17 56  1  0  0  0
 18 19  1  0  0  0
 18 57  1  0  0  0
 18 58  1  0  0  0
 19 20  1  0  0  0
 19 59  1  0  0  0
 19 60  1  0  0  0
 20 21  2  0  0  0
 20 22  1  0  0  0
 22 23  1  0  0  0
 23 61  1  0  0  0
 23 62  1  0  0  0
 23 63  1  0  0  0
 24 40  1  0  0  0
 24 25  1  0  0  0
 24 37  1  0  0  0
 25 26  1  0  0  0
 25 64  1  0  0  0
 25 65  1  0  0  0
 26 27  1  0  0  0
 26 66  1  0  0  0
 27 28  1  0  0  0
 27 67  1  0  0  0
 27 68  1  0  0  0
 28 33  1  0  0  0
 28 29  2  0  0  0
 29 30  1  0  0  0
 29 69  1  0  0  0
 30 31  2  0  0  0
 30 70  1  0  0  0
 31 32  1  0  0  0
 31 71  1  0  0  0
 32 33  2  0  0  0
 32 34  1  0  0  0
 33 72  1  0  0  0
 34 35  1  0  0  0
 34 36  1  0  0  0
 34 73  1  0  0  0
 35 74  1  0  0  0
 35 75  1  0  0  0
 35 76  1  0  0  0
 36 77  1  0  0  0
 36 78  1  0  0  0
 36 79  1  0  0  0
 37 80  1  0  0  0
M  END
> <i_f3d_flags>
0

> <chiral flag>
1

> <version>
0

> <s_i_glide_gridfile>
base1a_gride_6

> <i_i_glide_lignum>
23

> <i_i_glide_rotatable_bonds>
7

> <r_i_docking_score>
-0.994707845144327

> <r_i_glide_ligand_efficiency>
-0.0268839958147115

> <r_i_glide_ligand_efficiency_sa>
-0.089583438205514

> <r_i_glide_ligand_efficiency_ln>
-0.215728812351355

> <r_glide_XP_GScore>
-3.11130784514433

> <r_i_glide_gscore>
-3.11130784514433

> <r_i_glide_evdw>
-29.6870002746582

> <r_i_glide_ecoul>
-7.54260587692261

> <r_i_glide_energy>
-37.2296061515808

> <r_i_glide_einternal>
0

> <r_i_glide_emodel>
-46.5374962050316

> <r_glide_XP_HBond>
-1.14566081718382

> <i_i_glide_confnum>
1

> <i_i_glide_posenum>
2

> <r_i_glide_eff_state_penalty>
2.1166

> <i_glide_XP_PoseRank>
1

> <s_m_source_file>
glide-dock_pose_2-0012_raw.maegz

> <i_m_source_file_index>
1

> <i_lp_mmshare_version>
42013

> <s_epik_input>
YzEyW2NIXVtjSF1bY0hdYyhbY0hdMilPW0NIMl1bQ0gyXVtDSDJdW0NIMl1bQ0gyXUMoPU8pTihbQ0gzXSlbQ0BASF0oW0NIM10pQyg9TylbTkhdW0NAQEhdKFtDSDJdMSlbQ0BIXShbT0hdKVtDSDJdW05IXVtDSDJdYzNbY0hdW2NIXVtjSF1jKFtjSF0zKVtDSF0oW0NIM10pW0NIM10=

> <s_epik_cmdline>
J2VwaWtfcHl0aG9uJywgJy1waCcsICc3LjAnLCAnLXRuJywgJzgnLCAnLW1hJywgJzIwMCcsICctaW1hZScsICc8aW5maWxlLm1hZT4nLCAnLW9tYWUnLCAnPG91dGZpbGUubWFlPic=

> <r_lp_tautomer_probability>
1

> <r_epik_Ionization_Penalty>
1.98875

> <r_epik_Ionization_Penalty_Charging>
0

> <r_epik_Ionization_Penalty_Neutral>
1.98875

> <r_epik_State_Penalty>
2.11661

> <r_epik_Charging_Adjusted_Penalty>
2.11661

> <i_epik_Tot_Q>
0

> <i_epik_Tot_abs_Q>
0

> <i_f3d_flags>
0

> <s_lp_Force_Field>
OPLS_2005

> <r_lp_Energy>
44.3635

> <b_lp_Chiralities_Consistent>
1

> <s_lp_Variant>
BACE_11.smi:1-2

$$$$
BACE_12.smi:1
                    3D
 Structure written by MMmdl.
 79 82  0  0  1  0            999 V2000
   -3.5040    0.7852   -4.5392 C   0  0  0  0  0  0
   -4.0109    1.2658   -3.1709 C   0  0  0  0  0  0
   -5.0972    2.3433   -3.3149 C   0  0  0  0  0  0
   -2.8642    1.7339   -2.2838 C   0  0  0  0  0  0
   -2.0918    2.8610   -2.6408 C   0  0  0  0  0  0
   -1.0302    3.2843   -1.8189 C   0  0  0  0  0  0
   -0.7305    2.5820   -0.6368 C   0  0  0  0  0  0
   -1.4926    1.4523   -0.2734 C   0  0  0  0  0  0
   -2.5597    1.0347   -1.0959 C   0  0  0  0  0  0
   -1.1615    0.6804    0.9912 C   0  0  0  0  0  0
   -0.4318   -0.5721    0.7014 N   0  3  0  0  0  0
    0.9310   -0.3928    0.1555 C   0  0  0  0  0  0
    1.6196   -1.7485   -0.0852 C   0  0  2  0  0  0
    3.1282   -1.6015   -0.4237 C   0  0  2  0  0  0
    3.4102   -0.8983   -1.7749 C   0  0  0  0  0  0
    4.8871   -0.8112   -2.1260 C   0  0  0  0  0  0
    5.7212    0.0841   -1.4254 C   0  0  0  0  0  0
    7.0877    0.1774   -1.7481 C   0  0  0  0  0  0
    7.6249   -0.6218   -2.7746 C   0  0  0  0  0  0
    6.7996   -1.5212   -3.4817 C   0  0  0  0  0  0
    5.4295   -1.6132   -3.1544 C   0  0  0  0  0  0
    7.3953   -2.3804   -4.5861 C   0  0  0  0  0  0
    8.2599   -3.5290   -4.0384 C   0  0  0  0  0  0
    7.4419   -4.6903   -3.4472 C   0  0  0  0  0  0
    8.1524   -5.3532   -2.2543 C   0  0  0  0  0  0
    7.3991   -6.4644   -1.6892 N   0  0  0  0  0  0
    6.4139   -6.2578   -0.7123 C   0  0  0  0  0  0
    5.8183   -4.9978   -0.4754 C   0  0  0  0  0  0
    4.8025   -4.8944    0.4981 C   0  0  0  0  0  0
    4.4607   -6.0437    1.2400 C   0  0  0  0  0  0
    5.1207   -7.2625    0.9469 C   0  0  0  0  0  0
    6.0642   -7.3596   -0.0152 N   0  0  0  0  0  0
    4.8743   -8.4569    1.5878 O   0  0  0  0  0  0
    3.9109   -8.4643    2.6306 C   0  0  0  0  0  0
    4.1074   -3.5898    0.7463 C   0  0  0  0  0  0
    3.7864   -3.2424    1.8829 O   0  0  0  0  0  0
    3.8155   -2.8913   -0.3634 N   0  0  0  0  0  0
    0.9467   -2.4035   -1.1442 O   0  0  0  0  0  0
    1.5031   -2.3537    0.8144 H   0  0  0  0  0  0
    3.5801   -0.9844    0.3553 H   0  0  0  0  0  0
   -2.7712   -0.0143   -4.4262 H   0  0  0  0  0  0
   -3.0327    1.5929   -5.0999 H   0  0  0  0  0  0
   -4.3225    0.3970   -5.1458 H   0  0  0  0  0  0
   -4.4772    0.4080   -2.6844 H   0  0  0  0  0  0
   -5.4865    2.6395   -2.3405 H   0  0  0  0  0  0
   -5.9361    1.9754   -3.9059 H   0  0  0  0  0  0
   -4.7162    3.2381   -3.8077 H   0  0  0  0  0  0
   -2.3092    3.4059   -3.5477 H   0  0  0  0  0  0
   -0.4439    4.1475   -2.0973 H   0  0  0  0  0  0
    0.0893    2.9101   -0.0146 H   0  0  0  0  0  0
   -3.1417    0.1687   -0.8158 H   0  0  0  0  0  0
   -0.5801    1.2985    1.6767 H   0  0  0  0  0  0
   -2.0898    0.4306    1.5059 H   0  0  0  0  0  0
    0.8882    0.1796   -0.7713 H   0  0  0  0  0  0
    1.5104    0.1949    0.8688 H   0  0  0  0  0  0
    2.8949   -1.4143   -2.5856 H   0  0  0  0  0  0
    3.0092    0.1154   -1.7623 H   0  0  0  0  0  0
    5.3146    0.7029   -0.6389 H   0  0  0  0  0  0
    7.7242    0.8638   -1.2096 H   0  0  0  0  0  0
    8.6747   -0.5440   -3.0175 H   0  0  0  0  0  0
    4.7947   -2.3018   -3.6930 H   0  0  0  0  0  0
    6.6063   -2.7709   -5.2302 H   0  0  0  0  0  0
    8.0089   -1.7357   -5.2164 H   0  0  0  0  0  0
    8.8838   -3.9249   -4.8404 H   0  0  0  0  0  0
    8.9543   -3.1299   -3.2977 H   0  0  0  0  0  0
    6.4606   -4.3325   -3.1424 H   0  0  0  0  0  0
    7.2494   -5.4290   -4.2263 H   0  0  0  0  0  0
    9.1210   -5.7367   -2.5757 H   0  0  0  0  0  0
    8.3596   -4.6185   -1.4754 H   0  0  0  0  0  0
    7.7980   -7.3889   -1.7687 H   0  0  0  0  0  0
    6.1178   -4.1197   -1.0259 H   0  0  0  0  0  0
    3.6972   -5.9787    2.0008 H   0  0  0  0  0  0
    3.8369   -9.4694    3.0451 H   0  0  0  0  0  0
    2.9226   -8.1860    2.2624 H   0  0  0  0  0  0
    4.1964   -7.7932    3.4417 H   0  0  0  0  0  0
    4.1136   -3.2821   -1.2458 H   0  0  0  0  0  0
    1.3468   -3.2501   -1.2766 H   0  0  0  0  0  0
   -0.3579   -1.0986    1.5600 H   0  0  0  0  0  0
   -0.9711   -1.1120    0.0394 H   0  0  0  0  0  0
  1  2  1  0  0  0
  1 41  1  0  0  0
  1 42  1  0  0  0
  1 43  1  0  0  0
  2  3  1  0  0  0
  2  4  1  0  0  0
  2 44  1  0  0  0
  3 45  1  0  0  0
  3 46  1  0  0  0
  3 47  1  0  0  0
  4  9  1  0  0  0
  4  5  2  0  0  0
  5  6  1  0  0  0
  5 48  1  0  0  0
  6  7  2  0  0  0
  6 49  1  0  0  0
  7  8  1  0  0  0
  7 50  1  0  0  0
  8  9  2  0  0  0
  8 10  1  0  0  0
  9 51  1  0  0  0
 10 11  1  0  0  0
 10 52  1  0  0  0
 10 53  1  0  0  0
 11 12  1  0  0  0
 11 78  1  0  0  0
 11 79  1  0  0  0
 12 13  1  0  0  0
 12 54  1  0  0  0
 12 55  1  0  0  0
 13 39  1  0  0  0
 13 14  1  0  0  0
 13 38  1  0  0  0
 14 40  1  0  0  0
 14 37  1  0  0  0
 14 15  1  0  0  0
 15 16  1  0  0  0
 15 56  1  0  0  0
 15 57  1  0  0  0
 16 21  1  0  0  0
 16 17  2  0  0  0
 17 18  1  0  0  0
 17 58  1  0  0  0
 18 19  2  0  0  0
 18 59  1  0  0  0
 19 20  1  0  0  0
 19 60  1  0  0  0
 20 21  2  0  0  0
 20 22  1  0  0  0
 21 61  1  0  0  0
 22 23  1  0  0  0
 22 62  1  0  0  0
 22 63  1  0  0  0
 23 24  1  0  0  0
 23 64  1  0  0  0
 23 65  1  0  0  0
 24 25  1  0  0  0
 24 66  1  0  0  0
 24 67  1  0  0  0
 25 26  1  0  0  0
 25 68  1  0  0  0
 25 69  1  0  0  0
 26 27  1  0  0  0
 26 70  1  0  0  0
 27 32  1  0  0  0
 27 28  2  0  0  0
 28 29  1  0  0  0
 28 71  1  0  0  0
 29 30  2  0  0  0
 29 35  1  0  0  0
 30 31  1  0  0  0
 30 72  1  0  0  0
 31 32  2  0  0  0
 31 33  1  0  0  0
 33 34  1  0  0  0
 34 73  1  0  0  0
 34 74  1  0  0  0
 34 75  1  0  0  0
 35 36  2  0  0  0
 35 37  1  0  0  0
 37 76  1  0  0  0
 38 77  1  0  0  0
M  CHG  1  11   1
M  END
> <i_f3d_flags>
0

> <chiral flag>
1

> <version>
0

> <s_i_glide_gridfile>
base1a_gride_6

> <i_i_glide_lignum>
24

> <i_i_glide_rotatable_bonds>
8

> <r_i_docking_score>
-3.4381852115826

> <r_i_glide_ligand_efficiency>
-0.0904785581995422

> <r_i_glide_ligand_efficiency_sa>
-0.304186687140655

> <r_i_glide_ligand_efficiency_ln>
-0.741373872778992

> <r_glide_XP_GScore>
-3.4542852115826

> <r_i_glide_gscore>
-3.4542852115826

> <r_i_glide_evdw>
-33.6582527160645

> <r_i_glide_ecoul>
-7.92085599899292

> <r_i_glide_energy>
-41.5791087150574

> <r_i_glide_einternal>
0

> <r_i_glide_emodel>
-53.8818265793971

> <r_glide_XP_HBond>
-0.424210296271829

> <i_i_glide_confnum>
1

> <i_i_glide_posenum>
6

> <r_i_glide_eff_state_penalty>
0.0161

> <i_glide_XP_PoseRank>
1

> <s_m_source_file>
glide-dock_pose_2-0012_raw.maegz

> <i_m_source_file_index>
2

> <i_lp_mmshare_version>
42013

> <s_epik_input>
W0NIM11bQ0hdKFtDSDNdKWMxW2NIXVtjSF1bY0hdYyhbY0hdMSlbQ0gyXVtOSF1bQ0gyXVtDQEBIXShbT0hdKVtDQEhdKFtDSDJdMilbTkhdQyg9TyljKFtjSF1jKG4zKU9bQ0gzXSlbY0hdYzNbTkhdW0NIMl1bQ0gyXVtDSDJdW0NIMl1jKFtjSF00KVtjSF1bY0hdW2NIXWMyNA==

> <s_epik_cmdline>
J2VwaWtfcHl0aG9uJywgJy1waCcsICc3LjAnLCAnLXRuJywgJzgnLCAnLW1hJywgJzIwMCcsICctaW1hZScsICc8aW5maWxlLm1hZT4nLCAnLW9tYWUnLCAnPG91dGZpbGUubWFlPic=

> <r_lp_tautomer_probability>
1

> <r_epik_Ionization_Penalty>
0.0200825

> <r_epik_Ionization_Penalty_Charging>
0.0200546

> <r_epik_Ionization_Penalty_Neutral>
2.78717e-05

> <r_epik_State_Penalty>
0.0160525

> <r_epik_Charging_Adjusted_Penalty>
0.0361071

> <i_epik_Tot_Q>
1

> <i_epik_Tot_abs_Q>
1

> <i_f3d_flags>
0

> <s_lp_Force_Field>
OPLS_2005

> <r_lp_Energy>
26.9767

> <b_lp_Chiralities_Consistent>
1

> <s_lp_Variant>
BACE_12.smi:1-1

$$$$
BACE_12.smi:1
                    3D
 Structure written by MMmdl.
 78 81  0  0  1  0            999 V2000
   -4.1818    0.2596    3.4592 C   0  0  0  0  0  0
   -4.5782   -0.3735    2.1160 C   0  0  0  0  0  0
   -4.2204   -1.8673    2.0683 C   0  0  0  0  0  0
   -3.9787    0.3823    0.9369 C   0  0  0  0  0  0
   -4.8209    0.9830   -0.0233 C   0  0  0  0  0  0
   -4.2683    1.6793   -1.1155 C   0  0  0  0  0  0
   -2.8710    1.7767   -1.2580 C   0  0  0  0  0  0
   -2.0198    1.1759   -0.3082 C   0  0  0  0  0  0
   -2.5784    0.4866    0.7897 C   0  0  0  0  0  0
   -0.5138    1.2867   -0.4577 C   0  0  0  0  0  0
    0.1542   -0.0002   -0.2940 N   0  0  0  0  0  0
    1.6051    0.1051   -0.1840 C   0  0  0  0  0  0
    2.2448   -1.2732    0.0642 C   0  0  2  0  0  0
    1.8183   -1.9242    1.4107 C   0  0  2  0  0  0
    2.2963   -1.1612    2.6702 C   0  0  0  0  0  0
    1.8893   -1.8253    3.9759 C   0  0  0  0  0  0
    0.5399   -1.7955    4.3850 C   0  0  0  0  0  0
    0.1543   -2.4051    5.5933 C   0  0  0  0  0  0
    1.1164   -3.0438    6.3985 C   0  0  0  0  0  0
    2.4689   -3.0797    5.9983 C   0  0  0  0  0  0
    2.8519   -2.4680    4.7853 C   0  0  0  0  0  0
    3.4977   -3.7755    6.8765 C   0  0  0  0  0  0
    3.4103   -5.3092    6.7891 C   0  0  0  0  0  0
    4.0087   -5.8907    5.4959 C   0  0  0  0  0  0
    3.2719   -7.1618    5.0374 C   0  0  0  0  0  0
    3.8110   -7.7238    3.8060 N   0  0  0  0  0  0
    3.3484   -7.2937    2.5534 C   0  0  0  0  0  0
    2.7014   -6.0514    2.3603 C   0  0  0  0  0  0
    2.3103   -5.6781    1.0571 C   0  0  0  0  0  0
    2.5261   -6.5895    0.0039 C   0  0  0  0  0  0
    3.1629   -7.8134    0.2870 C   0  0  0  0  0  0
    3.5751   -8.1509    1.5349 N   0  0  0  0  0  0
    3.3816   -8.6968   -0.7499 O   0  0  0  0  0  0
    4.0223   -9.9342   -0.4600 C   0  0  0  0  0  0
    1.6723   -4.3474    0.8001 C   0  0  0  0  0  0
    0.7554   -4.2236   -0.0119 O   0  0  0  0  0  0
    2.2263   -3.3263    1.4739 N   0  0  0  0  0  0
    3.6479   -1.1016    0.0342 O   0  0  0  0  0  0
    1.9790   -1.9242   -0.7694 H   0  0  0  0  0  0
    0.7275   -1.9342    1.4469 H   0  0  0  0  0  0
   -4.4795    1.3078    3.5006 H   0  0  0  0  0  0
   -3.1053    0.2115    3.6261 H   0  0  0  0  0  0
   -4.6660   -0.2526    4.2909 H   0  0  0  0  0  0
   -5.6638   -0.3014    2.0372 H   0  0  0  0  0  0
   -4.5554   -2.3203    1.1347 H   0  0  0  0  0  0
   -4.6957   -2.4100    2.8859 H   0  0  0  0  0  0
   -3.1448   -2.0271    2.1489 H   0  0  0  0  0  0
   -5.8946    0.9133    0.0724 H   0  0  0  0  0  0
   -4.9177    2.1388   -1.8461 H   0  0  0  0  0  0
   -2.4558    2.3130   -2.0989 H   0  0  0  0  0  0
   -1.9268    0.0315    1.5215 H   0  0  0  0  0  0
   -0.2657    1.7180   -1.4282 H   0  0  0  0  0  0
   -0.1621    1.9903    0.2979 H   0  0  0  0  0  0
    2.0070    0.5308   -1.1046 H   0  0  0  0  0  0
    1.8752    0.7963    0.6146 H   0  0  0  0  0  0
    3.3813   -1.0533    2.6581 H   0  0  0  0  0  0
    1.8930   -0.1487    2.6718 H   0  0  0  0  0  0
   -0.2024   -1.3050    3.7720 H   0  0  0  0  0  0
   -0.8801   -2.3818    5.9032 H   0  0  0  0  0  0
    0.8127   -3.5087    7.3250 H   0  0  0  0  0  0
    3.8861   -2.4942    4.4744 H   0  0  0  0  0  0
    4.5031   -3.4362    6.6236 H   0  0  0  0  0  0
    3.3237   -3.4623    7.9066 H   0  0  0  0  0  0
    3.9387   -5.7497    7.6353 H   0  0  0  0  0  0
    2.3690   -5.6134    6.9038 H   0  0  0  0  0  0
    3.9831   -5.1397    4.7094 H   0  0  0  0  0  0
    5.0666   -6.1060    5.6513 H   0  0  0  0  0  0
    3.3485   -7.9240    5.8129 H   0  0  0  0  0  0
    2.2070   -6.9625    4.9115 H   0  0  0  0  0  0
    4.2234   -8.6441    3.8593 H   0  0  0  0  0  0
    2.5080   -5.3812    3.1827 H   0  0  0  0  0  0
    2.2272   -6.3523   -1.0070 H   0  0  0  0  0  0
    4.1146  -10.5152   -1.3775 H   0  0  0  0  0  0
    3.4436  -10.5272    0.2497 H   0  0  0  0  0  0
    5.0269   -9.7804   -0.0637 H   0  0  0  0  0  0
    2.9869   -3.5439    2.1013 H   0  0  0  0  0  0
    4.0539   -1.9510    0.1165 H   0  0  0  0  0  0
   -0.0682   -0.5943   -1.0866 H   0  0  0  0  0  0
  1  2  1  0  0  0
  1 41  1  0  0  0
  1 42  1  0  0  0
  1 43  1  0  0  0
  2  3  1  0  0  0
  2  4  1  0  0  0
  2 44  1  0  0  0
  3 45  1  0  0  0
  3 46  1  0  0  0
  3 47  1  0  0  0
  4  9  1  0  0  0
  4  5  2  0  0  0
  5  6  1  0  0  0
  5 48  1  0  0  0
  6  7  2  0  0  0
  6 49  1  0  0  0
  7  8  1  0  0  0
  7 50  1  0  0  0
  8  9  2  0  0  0
  8 10  1  0  0  0
  9 51  1  0  0  0
 10 11  1  0  0  0
 10 52  1  0  0  0
 10 53  1  0  0  0
 11 12  1  0  0  0
 11 78  1  0  0  0
 12 13  1  0  0  0
 12 54  1  0  0  0
 12 55  1  0  0  0
 13 39  1  0  0  0
 13 14  1  0  0  0
 13 38  1  0  0  0
 14 40  1  0  0  0
 14 37  1  0  0  0
 14 15  1  0  0  0
 15 16  1  0  0  0
 15 56  1  0  0  0
 15 57  1  0  0  0
 16 21  1  0  0  0
 16 17  2  0  0  0
 17 18  1  0  0  0
 17 58  1  0  0  0
 18 19  2  0  0  0
 18 59  1  0  0  0
 19 20  1  0  0  0
 19 60  1  0  0  0
 20 21  2  0  0  0
 20 22  1  0  0  0
 21 61  1  0  0  0
 22 23  1  0  0  0
 22 62  1  0  0  0
 22 63  1  0  0  0
 23 24  1  0  0  0
 23 64  1  0  0  0
 23 65  1  0  0  0
 24 25  1  0  0  0
 24 66  1  0  0  0
 24 67  1  0  0  0
 25 26  1  0  0  0
 25 68  1  0  0  0
 25 69  1  0  0  0
 26 27  1  0  0  0
 26 70  1  0  0  0
 27 32  1  0  0  0
 27 28  2  0  0  0
 28 29  1  0  0  0
 28 71  1  0  0  0
 29 30  2  0  0  0
 29 35  1  0  0  0
 30 31  1  0  0  0
 30 72  1  0  0  0
 31 32  2  0  0  0
 31 33  1  0  0  0
 33 34  1  0  0  0
 34 73  1  0  0  0
 34 74  1  0  0  0
 34 75  1  0  0  0
 35 36  2  0  0  0
 35 37  1  0  0  0
 37 76  1  0  0  0
 38 77  1  0  0  0
M  END
> <i_f3d_flags>
0

> <chiral flag>
1

> <version>
0

> <s_i_glide_gridfile>
base1a_gride_6

> <i_i_glide_lignum>
24

> <i_i_glide_rotatable_bonds>
8

> <r_i_docking_score>
-3.4381852115826

> <r_i_glide_ligand_efficiency>
-0.0904785581995422

> <r_i_glide_ligand_efficiency_sa>
-0.304186687140655

> <r_i_glide_ligand_efficiency_ln>
-0.741373872778992

> <r_glide_XP_GScore>
-3.4542852115826

> <r_i_glide_gscore>
-3.4542852115826

> <r_i_glide_evdw>
-33.6582527160645

> <r_i_glide_ecoul>
-7.92085599899292

> <r_i_glide_energy>
-41.5791087150574

> <r_i_glide_einternal>
0

> <r_i_glide_emodel>
-53.8818265793971

> <r_glide_XP_HBond>
-0.424210296271829

> <i_i_glide_confnum>
1

> <i_i_glide_posenum>
6

> <r_i_glide_eff_state_penalty>
0.0161

> <i_glide_XP_PoseRank>
1

> <s_m_source_file>
glide-dock_pose_2-0012_raw.maegz

> <i_m_source_file_index>
2

> <i_lp_mmshare_version>
42013

> <s_epik_input>
W0NIM11bQ0hdKFtDSDNdKWMxW2NIXVtjSF1bY0hdYyhbY0hdMSlbQ0gyXVtOSF1bQ0gyXVtDQEBIXShbT0hdKVtDQEhdKFtDSDJdMilbTkhdQyg9TyljKFtjSF1jKG4zKU9bQ0gzXSlbY0hdYzNbTkhdW0NIMl1bQ0gyXVtDSDJdW0NIMl1jKFtjSF00KVtjSF1bY0hdW2NIXWMyNA==

> <s_epik_cmdline>
J2VwaWtfcHl0aG9uJywgJy1waCcsICc3LjAnLCAnLXRuJywgJzgnLCAnLW1hJywgJzIwMCcsICctaW1hZScsICc8aW5maWxlLm1hZT4nLCAnLW9tYWUnLCAnPG91dGZpbGUubWFlPic=

> <r_lp_tautomer_probability>
1

> <r_epik_Ionization_Penalty>
2.01611

> <r_epik_Ionization_Penalty_Charging>
0

> <r_epik_Ionization_Penalty_Neutral>
2.01611

> <r_epik_State_Penalty>
2.14597

> <r_epik_Charging_Adjusted_Penalty>
2.14597

> <i_epik_Tot_Q>
0

> <i_epik_Tot_abs_Q>
0

> <i_f3d_flags>
0

> <s_lp_Force_Field>
OPLS_2005

> <r_lp_Energy>
24.9256

> <b_lp_Chiralities_Consistent>
1

> <s_lp_Variant>
BACE_12.smi:1-2

$$$$
