BACE_13.smi:1
                    3D
 Structure written by MMmdl.
 77 80  0  0  1  0            999 V2000
   -0.7264    9.0681    3.0360 C   0  0  0  0  0  0
   -1.3323    7.9458    2.4192 O   0  0  0  0  0  0
   -0.3812    7.0293    1.9024 C   0  0  0  0  0  0
   -1.0454    5.8399    1.2358 C   0  0  0  0  0  0
   -0.5277    4.5431    1.4282 C   0  0  0  0  0  0
   -1.1236    3.4374    0.7866 C   0  0  0  0  0  0
   -2.2667    3.6357   -0.0173 C   0  0  0  0  0  0
   -2.7877    4.9328   -0.2312 C   0  0  0  0  0  0
   -2.1597    6.0306    0.3921 C   0  0  0  0  0  0
   -3.8977    5.1828   -1.0541 N   0  0  0  0  0  0
   -4.9369    4.1725   -1.2192 C   0  0  0  0  0  0
   -5.1250    3.7329   -2.6821 C   0  0  0  0  0  0
   -3.8866    3.0664   -3.3143 C   0  0  0  0  0  0
   -4.2282    1.8834   -4.2389 C   0  0  0  0  0  0
   -4.8736    0.8317   -3.5233 O   0  0  0  0  0  0
   -4.1555    0.0783   -2.6162 C   0  0  0  0  0  0
   -4.9012   -0.7228   -1.7276 C   0  0  0  0  0  0
   -4.2590   -1.5198   -0.7615 C   0  0  0  0  0  0
   -2.8551   -1.5315   -0.6795 C   0  0  0  0  0  0
   -2.0907   -0.7456   -1.5646 C   0  0  0  0  0  0
   -2.7399    0.0547   -2.5303 C   0  0  0  0  0  0
   -0.5722   -0.7774   -1.4836 C   0  0  0  0  0  0
    0.0073   -0.0480   -0.2462 C   0  0  2  0  0  0
   -0.5286    1.3084   -0.1408 N   0  0  0  0  0  0
   -0.5559    2.0624    0.9716 C   0  0  0  0  0  0
   -0.1009    1.7013    2.0572 O   0  0  0  0  0  0
    1.5626   -0.0387   -0.1767 C   0  0  1  0  0  0
    2.2040   -1.4320    0.0720 C   0  0  1  0  0  0
    3.7396   -1.3669    0.2312 C   0  0  0  0  0  0
    4.0775   -0.6804    1.4315 O   0  0  0  0  0  0
    3.5906   -1.3390    2.5971 C   0  0  2  0  0  0
    2.0553   -1.4763    2.5357 C   0  0  0  0  0  0
    1.6423   -2.1076    1.2654 N   0  3  0  0  0  0
    4.0737   -0.5602    3.8290 C   0  0  0  0  0  0
    3.4713    0.7245    3.8484 O   0  0  0  0  0  0
    3.8718    1.4991    4.9646 C   0  0  0  0  0  0
    2.0706    0.4754   -1.3935 O   0  0  0  0  0  0
   -0.3716   -0.5731    0.6315 H   0  0  0  0  0  0
    1.8929    0.6375    0.6120 H   0  0  0  0  0  0
    1.9801   -2.0709   -0.7827 H   0  0  0  0  0  0
    4.0356   -2.3351    2.6335 H   0  0  0  0  0  0
   -1.4983    9.7370    3.4160 H   0  0  0  0  0  0
   -0.1160    9.6272    2.3258 H   0  0  0  0  0  0
   -0.0993    8.7662    3.8758 H   0  0  0  0  0  0
    0.2533    7.5255    1.1667 H   0  0  0  0  0  0
    0.2664    6.6810    2.7088 H   0  0  0  0  0  0
    0.3392    4.4003    2.0575 H   0  0  0  0  0  0
   -2.7278    2.7750   -0.4739 H   0  0  0  0  0  0
   -2.5420    7.0284    0.2316 H   0  0  0  0  0  0
   -4.1974    6.1444   -1.1297 H   0  0  0  0  0  0
   -4.7766    3.3043   -0.5817 H   0  0  0  0  0  0
   -5.8691    4.6152   -0.8677 H   0  0  0  0  0  0
   -5.9656    3.0388   -2.7045 H   0  0  0  0  0  0
   -5.4325    4.5823   -3.2933 H   0  0  0  0  0  0
   -3.3276    3.8174   -3.8730 H   0  0  0  0  0  0
   -3.2053    2.7214   -2.5440 H   0  0  0  0  0  0
   -4.9136    2.2232   -5.0157 H   0  0  0  0  0  0
   -3.3472    1.5195   -4.7674 H   0  0  0  0  0  0
   -5.9800   -0.7203   -1.7824 H   0  0  0  0  0  0
   -4.8449   -2.1237   -0.0843 H   0  0  0  0  0  0
   -2.3668   -2.1476    0.0614 H   0  0  0  0  0  0
   -2.1323    0.6447   -3.1986 H   0  0  0  0  0  0
   -0.2588   -1.8215   -1.4823 H   0  0  0  0  0  0
   -0.1712   -0.3460   -2.4014 H   0  0  0  0  0  0
   -0.9140    1.7080   -0.9845 H   0  0  0  0  0  0
    4.1662   -2.3710    0.2502 H   0  0  0  0  0  0
    4.2026   -0.8550   -0.6122 H   0  0  0  0  0  0
    1.6936   -2.0809    3.3676 H   0  0  0  0  0  0
    1.5716   -0.5037    2.6234 H   0  0  0  0  0  0
    0.6339   -2.1132    1.2059 H   0  0  0  0  0  0
    3.8075   -1.1044    4.7364 H   0  0  0  0  0  0
    5.1609   -0.4682    3.8106 H   0  0  0  0  0  0
    3.3839    2.4731    4.9280 H   0  0  0  0  0  0
    4.9502    1.6627    4.9652 H   0  0  0  0  0  0
    3.5897    1.0161    5.9010 H   0  0  0  0  0  0
    1.7520    1.3590   -1.5030 H   0  0  0  0  0  0
    1.9728   -3.0621    1.2692 H   0  0  0  0  0  0
  1  2  1  0  0  0
  1 42  1  0  0  0
  1 43  1  0  0  0
  1 44  1  0  0  0
  2  3  1  0  0  0
  3  4  1  0  0  0
  3 45  1  0  0  0
  3 46  1  0  0  0
  4  9  1  0  0  0
  4  5  2  0  0  0
  5  6  1  0  0  0
  5 47  1  0  0  0
  6 25  1  0  0  0
  6  7  2  0  0  0
  7  8  1  0  0  0
  7 48  1  0  0  0
  8  9  2  0  0  0
  8 10  1  0  0  0
  9 49  1  0  0  0
 10 11  1  0  0  0
 10 50  1  0  0  0
 11 12  1  0  0  0
 11 51  1  0  0  0
 11 52  1  0  0  0
 12 13  1  0  0  0
 12 53  1  0  0  0
 12 54  1  0  0  0
 13 14  1  0  0  0
 13 55  1  0  0  0
 13 56  1  0  0  0
 14 15  1  0  0  0
 14 57  1  0  0  0
 14 58  1  0  0  0
 15 16  1  0  0  0
 16 21  1  0  0  0
 16 17  2  0  0  0
 17 18  1  0  0  0
 17 59  1  0  0  0
 18 19  2  0  0  0
 18 60  1  0  0  0
 19 20  1  0  0  0
 19 61  1  0  0  0
 20 21  2  0  0  0
 20 22  1  0  0  0
 21 62  1  0  0  0
 22 23  1  0  0  0
 22 63  1  0  0  0
 22 64  1  0  0  0
 23 38  1  0  0  0
 23 24  1  0  0  0
 23 27  1  0  0  0
 24 25  1  0  0  0
 24 65  1  0  0  0
 25 26  2  0  0  0
 27 39  1  0  0  0
 27 28  1  0  0  0
 27 37  1  0  0  0
 28 40  1  0  0  0
 28 33  1  0  0  0
 28 29  1  0  0  0
 29 30  1  0  0  0
 29 66  1  0  0  0
 29 67  1  0  0  0
 30 31  1  0  0  0
 31 41  1  0  0  0
 31 32  1  0  0  0
 31 34  1  0  0  0
 32 33  1  0  0  0
 32 68  1  0  0  0
 32 69  1  0  0  0
 33 70  1  0  0  0
 33 77  1  0  0  0
 34 35  1  0  0  0
 34 71  1  0  0  0
 34 72  1  0  0  0
 35 36  1  0  0  0
 36 73  1  0  0  0
 36 74  1  0  0  0
 36 75  1  0  0  0
 37 76  1  0  0  0
M  CHG  1  33   1
M  END
> <i_f3d_flags>
0

> <chiral flag>
1

> <version>
0

> <s_i_glide_gridfile>
base1a_gride_6

> <i_i_glide_lignum>
27

> <i_i_glide_rotatable_bonds>
7

> <r_i_docking_score>
1.33467263012814

> <r_i_glide_ligand_efficiency>
0.0360722332467066

> <r_i_glide_ligand_efficiency_sa>
0.120200683717667

> <r_i_glide_ligand_efficiency_ln>
0.289459204309007

> <r_glide_XP_GScore>
0.259772630128144

> <r_i_glide_gscore>
0.259772630128144

> <r_i_glide_evdw>
-26.7217197418213

> <r_i_glide_ecoul>
-11.9576826095581

> <r_i_glide_energy>
-38.6794023513794

> <r_i_glide_einternal>
1.15271246433258

> <r_i_glide_emodel>
-44.7373769258117

> <r_glide_XP_HBond>
-1.41722438298833

> <i_i_glide_confnum>
1

> <i_i_glide_posenum>
19

> <r_i_glide_eff_state_penalty>
1.0749

> <i_glide_XP_PoseRank>
1

> <s_m_source_file>
glide-dock_pose_2-0014_raw.maegz

> <i_m_source_file_index>
1

> <i_lp_mmshare_version>
42013

> <s_epik_input>
W0NIM11PW0NIMl1jKFtjSF1jMTIpW2NIXWMoW2NIXTEpW05IXVtDSDJdW0NIMl1bQ0gyXVtDSDJdT2MzW2NIXVtjSF1bY0hdYyhbY0hdMylbQ0gyXVtDQEhdKFtOSF1DMj1PKVtDQEhdKFtPSF0pW0NASF00W0NIMl1PW0NASF0oW0NIMl1bTkhdNClbQ0gyXU9bQ0gzXQ==

> <s_epik_cmdline>
J2VwaWtfcHl0aG9uJywgJy1waCcsICc3LjAnLCAnLXRuJywgJzgnLCAnLW1hJywgJzIwMCcsICctaW1hZScsICc8aW5maWxlLm1hZT4nLCAnLW9tYWUnLCAnPG91dGZpbGUubWFlPic=

> <r_lp_tautomer_probability>
1

> <r_epik_Ionization_Penalty>
0.116098

> <r_epik_Ionization_Penalty_Charging>
0.115759

> <r_epik_Ionization_Penalty_Neutral>
0.000338331

> <r_epik_State_Penalty>
0.10539

> <r_epik_Charging_Adjusted_Penalty>
0.221149

> <i_epik_Tot_Q>
1

> <i_epik_Tot_abs_Q>
1

> <i_f3d_flags>
0

> <s_lp_Force_Field>
OPLS_2005

> <r_lp_Energy>
45.964

> <b_lp_Chiralities_Consistent>
1

> <s_lp_Variant>
BACE_13.smi:1-1

$$$$
BACE_13.smi:1
                    3D
 Structure written by MMmdl.
 76 79  0  0  1  0            999 V2000
    1.2130    7.8376    3.4893 C   0  0  0  0  0  0
    0.6697    6.7099    2.8250 O   0  0  0  0  0  0
   -0.4356    7.0454    2.0005 C   0  0  0  0  0  0
   -1.0433    5.8465    1.2921 C   0  0  0  0  0  0
   -0.5236    4.5455    1.4674 C   0  0  0  0  0  0
   -1.1007    3.4509    0.7894 C   0  0  0  0  0  0
   -2.2289    3.6608   -0.0326 C   0  0  0  0  0  0
   -2.7569    4.9583   -0.2216 C   0  0  0  0  0  0
   -2.1488    6.0445    0.4395 C   0  0  0  0  0  0
   -3.8569    5.2187   -1.0544 N   0  0  0  0  0  0
   -4.9017    4.2152   -1.2243 C   0  0  0  0  0  0
   -5.1145    3.8107   -2.6935 C   0  0  0  0  0  0
   -3.9027    3.1149   -3.3457 C   0  0  0  0  0  0
   -4.2844    1.9094   -4.2241 C   0  0  0  0  0  0
   -4.9302    0.8922   -3.4608 O   0  0  0  0  0  0
   -4.1997    0.1358   -2.5662 C   0  0  0  0  0  0
   -4.9349   -0.6611   -1.6651 C   0  0  0  0  0  0
   -4.2813   -1.4666   -0.7138 C   0  0  0  0  0  0
   -2.8764   -1.4900   -0.6589 C   0  0  0  0  0  0
   -2.1225   -0.7068   -1.5553 C   0  0  0  0  0  0
   -2.7829    0.1028   -2.5055 C   0  0  0  0  0  0
   -0.6033   -0.7526   -1.5029 C   0  0  0  0  0  0
    0.0046   -0.0351   -0.2727 C   0  0  2  0  0  0
   -0.5079    1.3295   -0.1587 N   0  0  0  0  0  0
   -0.5343    2.0729    0.9605 C   0  0  0  0  0  0
   -0.0862    1.6988    2.0446 O   0  0  0  0  0  0
    1.5601   -0.0520   -0.2265 C   0  0  1  0  0  0
    2.1735   -1.4653   -0.0187 C   0  0  1  0  0  0
    3.7166   -1.4410    0.0758 C   0  0  0  0  0  0
    4.1198   -0.7831    1.2719 O   0  0  0  0  0  0
    3.6776   -1.4791    2.4338 C   0  0  2  0  0  0
    2.1365   -1.5201    2.4240 C   0  0  0  0  0  0
    1.6483   -2.1266    1.1837 N   0  0  0  0  0  0
    4.2201   -0.7413    3.6648 C   0  0  0  0  0  0
    5.6155   -0.9733    3.7643 O   0  0  0  0  0  0
    6.1974   -0.3220    4.8796 C   0  0  0  0  0  0
    2.0551    0.4805   -1.4410 O   0  0  0  0  0  0
   -0.3698   -0.5575    0.6087 H   0  0  0  0  0  0
    1.9118    0.6040    0.5697 H   0  0  0  0  0  0
    1.9077   -2.0719   -0.8847 H   0  0  0  0  0  0
    4.0684   -2.4986    2.4290 H   0  0  0  0  0  0
    2.0612    7.5298    4.1007 H   0  0  0  0  0  0
    0.4757    8.3017    4.1456 H   0  0  0  0  0  0
    1.5656    8.5839    2.7762 H   0  0  0  0  0  0
   -1.2135    7.5168    2.6032 H   0  0  0  0  0  0
   -0.1240    7.7699    1.2463 H   0  0  0  0  0  0
    0.3295    4.3827    2.1103 H   0  0  0  0  0  0
   -2.6756    2.8093   -0.5201 H   0  0  0  0  0  0
   -2.5393    7.0426    0.3021 H   0  0  0  0  0  0
   -4.1557    6.1813   -1.1168 H   0  0  0  0  0  0
   -4.7342    3.3317   -0.6095 H   0  0  0  0  0  0
   -5.8265    4.6531   -0.8482 H   0  0  0  0  0  0
   -5.9780    3.1456   -2.7237 H   0  0  0  0  0  0
   -5.3984    4.6811   -3.2862 H   0  0  0  0  0  0
   -3.3577    3.8439   -3.9460 H   0  0  0  0  0  0
   -3.1972    2.7885   -2.5885 H   0  0  0  0  0  0
   -4.9830    2.2364   -4.9946 H   0  0  0  0  0  0
   -3.4225    1.5150   -4.7624 H   0  0  0  0  0  0
   -6.0145   -0.6509   -1.7009 H   0  0  0  0  0  0
   -4.8586   -2.0690   -0.0278 H   0  0  0  0  0  0
   -2.3785   -2.1133    0.0695 H   0  0  0  0  0  0
   -2.1821    0.6902   -3.1822 H   0  0  0  0  0  0
   -0.3000   -1.7995   -1.5101 H   0  0  0  0  0  0
   -0.2130   -0.3217   -2.4255 H   0  0  0  0  0  0
   -0.8762    1.7426   -1.0032 H   0  0  0  0  0  0
    4.1190   -2.4553    0.0576 H   0  0  0  0  0  0
    4.1569   -0.9252   -0.7773 H   0  0  0  0  0  0
    1.7742   -2.0899    3.2797 H   0  0  0  0  0  0
    1.7345   -0.5130    2.5367 H   0  0  0  0  0  0
    0.6341   -2.0879    1.1727 H   0  0  0  0  0  0
    4.0058    0.3267    3.5968 H   0  0  0  0  0  0
    3.7329   -1.1178    4.5658 H   0  0  0  0  0  0
    7.2680   -0.5242    4.9034 H   0  0  0  0  0  0
    5.7662   -0.6806    5.8149 H   0  0  0  0  0  0
    6.0601    0.7584    4.8213 H   0  0  0  0  0  0
    2.9949    0.5542   -1.3731 H   0  0  0  0  0  0
  1  2  1  0  0  0
  1 42  1  0  0  0
  1 43  1  0  0  0
  1 44  1  0  0  0
  2  3  1  0  0  0
  3  4  1  0  0  0
  3 45  1  0  0  0
  3 46  1  0  0  0
  4  9  1  0  0  0
  4  5  2  0  0  0
  5  6  1  0  0  0
  5 47  1  0  0  0
  6 25  1  0  0  0
  6  7  2  0  0  0
  7  8  1  0  0  0
  7 48  1  0  0  0
  8  9  2  0  0  0
  8 10  1  0  0  0
  9 49  1  0  0  0
 10 11  1  0  0  0
 10 50  1  0  0  0
 11 12  1  0  0  0
 11 51  1  0  0  0
 11 52  1  0  0  0
 12 13  1  0  0  0
 12 53  1  0  0  0
 12 54  1  0  0  0
 13 14  1  0  0  0
 13 55  1  0  0  0
 13 56  1  0  0  0
 14 15  1  0  0  0
 14 57  1  0  0  0
 14 58  1  0  0  0
 15 16  1  0  0  0
 16 21  1  0  0  0
 16 17  2  0  0  0
 17 18  1  0  0  0
 17 59  1  0  0  0
 18 19  2  0  0  0
 18 60  1  0  0  0
 19 20  1  0  0  0
 19 61  1  0  0  0
 20 21  2  0  0  0
 20 22  1  0  0  0
 21 62  1  0  0  0
 22 23  1  0  0  0
 22 63  1  0  0  0
 22 64  1  0  0  0
 23 38  1  0  0  0
 23 24  1  0  0  0
 23 27  1  0  0  0
 24 25  1  0  0  0
 24 65  1  0  0  0
 25 26  2  0  0  0
 27 39  1  0  0  0
 27 28  1  0  0  0
 27 37  1  0  0  0
 28 40  1  0  0  0
 28 33  1  0  0  0
 28 29  1  0  0  0
 29 30  1  0  0  0
 29 66  1  0  0  0
 29 67  1  0  0  0
 30 31  1  0  0  0
 31 41  1  0  0  0
 31 32  1  0  0  0
 31 34  1  0  0  0
 32 33  1  0  0  0
 32 68  1  0  0  0
 32 69  1  0  0  0
 33 70  1  0  0  0
 34 35  1  0  0  0
 34 71  1  0  0  0
 34 72  1  0  0  0
 35 36  1  0  0  0
 36 73  1  0  0  0
 36 74  1  0  0  0
 36 75  1  0  0  0
 37 76  1  0  0  0
M  END
> <i_f3d_flags>
0

> <chiral flag>
1

> <version>
0

> <s_i_glide_gridfile>
base1a_gride_6

> <i_i_glide_lignum>
27

> <i_i_glide_rotatable_bonds>
7

> <r_i_docking_score>
1.33467263012814

> <r_i_glide_ligand_efficiency>
0.0360722332467066

> <r_i_glide_ligand_efficiency_sa>
0.120200683717667

> <r_i_glide_ligand_efficiency_ln>
0.289459204309007

> <r_glide_XP_GScore>
0.259772630128144

> <r_i_glide_gscore>
0.259772630128144

> <r_i_glide_evdw>
-26.7217197418213

> <r_i_glide_ecoul>
-11.9576826095581

> <r_i_glide_energy>
-38.6794023513794

> <r_i_glide_einternal>
1.15271246433258

> <r_i_glide_emodel>
-44.7373769258117

> <r_glide_XP_HBond>
-1.41722438298833

> <i_i_glide_confnum>
1

> <i_i_glide_posenum>
19

> <r_i_glide_eff_state_penalty>
1.0749

> <i_glide_XP_PoseRank>
1

> <s_m_source_file>
glide-dock_pose_2-0014_raw.maegz

> <i_m_source_file_index>
1

> <i_lp_mmshare_version>
42013

> <s_epik_input>
W0NIM11PW0NIMl1jKFtjSF1jMTIpW2NIXWMoW2NIXTEpW05IXVtDSDJdW0NIMl1bQ0gyXVtDSDJdT2MzW2NIXVtjSF1bY0hdYyhbY0hdMylbQ0gyXVtDQEhdKFtOSF1DMj1PKVtDQEhdKFtPSF0pW0NASF00W0NIMl1PW0NASF0oW0NIMl1bTkhdNClbQ0gyXU9bQ0gzXQ==

> <s_epik_cmdline>
J2VwaWtfcHl0aG9uJywgJy1waCcsICc3LjAnLCAnLXRuJywgJzgnLCAnLW1hJywgJzIwMCcsICctaW1hZScsICc8aW5maWxlLm1hZT4nLCAnLW9tYWUnLCAnPG91dGZpbGUubWFlPic=

> <r_lp_tautomer_probability>
1

> <r_epik_Ionization_Penalty>
1.02473

> <r_epik_Ionization_Penalty_Charging>
0

> <r_epik_Ionization_Penalty_Neutral>
1.02473

> <r_epik_State_Penalty>
1.07494

> <r_epik_Charging_Adjusted_Penalty>
1.07494

> <i_epik_Tot_Q>
0

> <i_epik_Tot_abs_Q>
0

> <i_f3d_flags>
0

> <s_lp_Force_Field>
OPLS_2005

> <r_lp_Energy>
44.7965

> <b_lp_Chiralities_Consistent>
1

> <s_lp_Variant>
BACE_13.smi:1-2

$$$$
BACE_14.smi:1
                    3D
 Structure written by MMmdl.
 85 89  0  0  1  0            999 V2000
   -2.5386    2.7616    4.9851 C   0  0  0  0  0  0
   -1.0249    2.4957    5.0069 C   0  0  0  0  0  0
   -0.7068    1.0728    5.4927 C   0  0  0  0  0  0
   -0.3829    2.7830    3.6555 C   0  0  0  0  0  0
    0.5994    3.7890    3.5382 C   0  0  0  0  0  0
    1.1976    4.0522    2.2915 C   0  0  0  0  0  0
    0.8158    3.3136    1.1559 C   0  0  0  0  0  0
   -0.1688    2.3078    1.2552 C   0  0  0  0  0  0
   -0.7591    2.0475    2.5101 C   0  0  0  0  0  0
   -0.5779    1.5113    0.0507 C   0  0  0  0  0  0
   -2.0061    1.6086   -0.4343 C   0  0  0  0  0  0
   -0.8863    2.1883   -1.2678 C   0  0  0  0  0  0
    0.0356    0.1848    0.0312 N   0  0  0  0  0  0
    1.4225    0.1628   -0.4283 C   0  0  0  0  0  0
    1.9734   -1.2741   -0.4704 C   0  0  2  0  0  0
    3.5258   -1.3113   -0.4652 C   0  0  2  0  0  0
    4.1685   -0.6656   -1.7181 C   0  0  0  0  0  0
    5.6874   -0.7325   -1.7481 C   0  0  0  0  0  0
    6.4423    0.1099   -0.9080 C   0  0  0  0  0  0
    7.8475    0.0724   -0.9533 C   0  0  0  0  0  0
    8.5006   -0.8075   -1.8368 C   0  0  0  0  0  0
    7.7638   -1.6666   -2.6775 C   0  0  0  0  0  0
    6.3472   -1.6166   -2.6297 C   0  0  0  0  0  0
    8.4912   -2.4994   -3.5045 O   0  0  0  0  0  0
    7.8471   -3.5998   -4.1441 C   0  0  0  0  0  0
    7.4629   -4.6922   -3.1299 C   0  0  0  0  0  0
    8.6744   -5.3162   -2.4088 C   0  0  0  0  0  0
    8.4243   -5.6814   -0.9346 C   0  0  0  0  0  0
    7.3654   -6.6688   -0.7595 N   0  0  0  0  0  0
    6.1956   -6.3540   -0.0484 C   0  0  0  0  0  0
    5.7011   -5.0358    0.0783 C   0  0  0  0  0  0
    4.5029   -4.7781    0.7763 C   0  0  0  0  0  0
    3.8166   -5.8437    1.3956 C   0  0  0  0  0  0
    4.2963   -7.1700    1.2847 C   0  0  0  0  0  0
    5.4815   -7.4106    0.5521 C   0  0  0  0  0  0
    3.5825   -8.3165    1.9165 C   0  0  0  0  0  0
    3.9780   -9.4802    1.8546 O   0  0  0  0  0  0
    2.2911   -8.0214    2.6777 C   0  0  0  0  0  0
    3.9704   -3.3797    0.8757 C   0  0  0  0  0  0
    3.4764   -2.9614    1.9227 O   0  0  0  0  0  0
    4.0231   -2.6733   -0.2665 N   0  0  0  0  0  0
    1.4852   -1.8939   -1.6460 O   0  0  0  0  0  0
    1.5934   -1.8221    0.3927 H   0  0  0  0  0  0
    3.8650   -0.7359    0.3985 H   0  0  0  0  0  0
   -2.7514    3.7889    4.6884 H   0  0  0  0  0  0
   -2.9769    2.6070    5.9716 H   0  0  0  0  0  0
   -3.0547    2.1000    4.2888 H   0  0  0  0  0  0
   -0.5908    3.1853    5.7322 H   0  0  0  0  0  0
    0.3699    0.9124    5.5564 H   0  0  0  0  0  0
   -1.1167    0.3170    4.8224 H   0  0  0  0  0  0
   -1.1247    0.8953    6.4841 H   0  0  0  0  0  0
    0.9007    4.3618    4.4028 H   0  0  0  0  0  0
    1.9512    4.8211    2.2065 H   0  0  0  0  0  0
    1.2832    3.5204    0.2043 H   0  0  0  0  0  0
   -1.5084    1.2737    2.5903 H   0  0  0  0  0  0
   -2.4845    0.7089   -0.8165 H   0  0  0  0  0  0
   -2.6689    2.3133    0.0645 H   0  0  0  0  0  0
   -0.8124    3.2729   -1.3174 H   0  0  0  0  0  0
   -0.6452    1.6625   -2.1896 H   0  0  0  0  0  0
   -0.5325   -0.4603   -0.5086 H   0  0  0  0  0  0
    1.5117    0.6312   -1.4092 H   0  0  0  0  0  0
    2.0288    0.7597    0.2537 H   0  0  0  0  0  0
    3.7876   -1.1382   -2.6239 H   0  0  0  0  0  0
    3.8791    0.3834   -1.7859 H   0  0  0  0  0  0
    5.9455    0.7910   -0.2326 H   0  0  0  0  0  0
    8.4257    0.7210   -0.3119 H   0  0  0  0  0  0
    9.5802   -0.8289   -1.8646 H   0  0  0  0  0  0
    5.7464   -2.2486   -3.2649 H   0  0  0  0  0  0
    6.9857   -3.2702   -4.7250 H   0  0  0  0  0  0
    8.5463   -4.0158   -4.8698 H   0  0  0  0  0  0
    6.7689   -4.2710   -2.4110 H   0  0  0  0  0  0
    6.9061   -5.4817   -3.6353 H   0  0  0  0  0  0
    9.0131   -6.1929   -2.9621 H   0  0  0  0  0  0
    9.5113   -4.6177   -2.4289 H   0  0  0  0  0  0
    9.3364   -6.1178   -0.5272 H   0  0  0  0  0  0
    8.2525   -4.7825   -0.3443 H   0  0  0  0  0  0
    7.6490   -7.6383   -0.7693 H   0  0  0  0  0  0
    6.2259   -4.2023   -0.3598 H   0  0  0  0  0  0
    2.9093   -5.6273    1.9405 H   0  0  0  0  0  0
    5.8597   -8.4184    0.4523 H   0  0  0  0  0  0
    1.5538   -7.5655    2.0169 H   0  0  0  0  0  0
    2.4840   -7.3442    3.5097 H   0  0  0  0  0  0
    1.8656   -8.9416    3.0788 H   0  0  0  0  0  0
    4.4298   -3.1244   -1.0731 H   0  0  0  0  0  0
    1.7954   -1.4065   -2.3937 H   0  0  0  0  0  0
  1  2  1  0  0  0
  1 45  1  0  0  0
  1 46  1  0  0  0
  1 47  1  0  0  0
  2  3  1  0  0  0
  2  4  1  0  0  0
  2 48  1  0  0  0
  3 49  1  0  0  0
  3 50  1  0  0  0
  3 51  1  0  0  0
  4  9  1  0  0  0
  4  5  2  0  0  0
  5  6  1  0  0  0
  5 52  1  0  0  0
  6  7  2  0  0  0
  6 53  1  0  0  0
  7  8  1  0  0  0
  7 54  1  0  0  0
  8  9  2  0  0  0
  8 10  1  0  0  0
  9 55  1  0  0  0
 10 12  1  0  0  0
 10 11  1  0  0  0
 10 13  1  0  0  0
 11 12  1  0  0  0
 11 56  1  0  0  0
 11 57  1  0  0  0
 12 58  1  0  0  0
 12 59  1  0  0  0
 13 14  1  0  0  0
 13 60  1  0  0  0
 14 15  1  0  0  0
 14 61  1  0  0  0
 14 62  1  0  0  0
 15 43  1  0  0  0
 15 16  1  0  0  0
 15 42  1  0  0  0
 16 44  1  0  0  0
 16 41  1  0  0  0
 16 17  1  0  0  0
 17 18  1  0  0  0
 17 63  1  0  0  0
 17 64  1  0  0  0
 18 23  1  0  0  0
 18 19  2  0  0  0
 19 20  1  0  0  0
 19 65  1  0  0  0
 20 21  2  0  0  0
 20 66  1  0  0  0
 21 22  1  0  0  0
 21 67  1  0  0  0
 22 23  2  0  0  0
 22 24  1  0  0  0
 23 68  1  0  0  0
 24 25  1  0  0  0
 25 26  1  0  0  0
 25 69  1  0  0  0
 25 70  1  0  0  0
 26 27  1  0  0  0
 26 71  1  0  0  0
 26 72  1  0  0  0
 27 28  1  0  0  0
 27 73  1  0  0  0
 27 74  1  0  0  0
 28 29  1  0  0  0
 28 75  1  0  0  0
 28 76  1  0  0  0
 29 30  1  0  0  0
 29 77  1  0  0  0
 30 35  1  0  0  0
 30 31  2  0  0  0
 31 32  1  0  0  0
 31 78  1  0  0  0
 32 33  2  0  0  0
 32 39  1  0  0  0
 33 34  1  0  0  0
 33 79  1  0  0  0
 34 35  2  0  0  0
 34 36  1  0  0  0
 35 80  1  0  0  0
 36 37  2  0  0  0
 36 38  1  0  0  0
 38 81  1  0  0  0
 38 82  1  0  0  0
 38 83  1  0  0  0
 39 40  2  0  0  0
 39 41  1  0  0  0
 41 84  1  0  0  0
 42 85  1  0  0  0
M  END
> <i_f3d_flags>
0

> <chiral flag>
1

> <version>
0

> <s_i_glide_gridfile>
base1a_gride_6

> <i_i_glide_lignum>
28

> <i_i_glide_rotatable_bonds>
8

> <r_i_docking_score>
-3.70605238390102

> <r_i_glide_ligand_efficiency>
-0.0882393424738337

> <r_i_glide_ligand_efficiency_sa>
-0.306722305184164

> <r_i_glide_ligand_efficiency_ln>
-0.782252179341255

> <r_glide_XP_GScore>
-4.02365238390102

> <r_i_glide_gscore>
-4.02365238390102

> <r_i_glide_evdw>
-32.7043037414551

> <r_i_glide_ecoul>
-8.2701940536499

> <r_i_glide_energy>
-40.974497795105

> <r_i_glide_einternal>
5.79167699813843

> <r_i_glide_emodel>
-50.5105519132854

> <r_glide_XP_HBond>
-0.7

> <i_i_glide_confnum>
1

> <i_i_glide_posenum>
1

> <r_i_glide_eff_state_penalty>
0.3176

> <i_glide_XP_PoseRank>
1

> <s_m_source_file>
glide-dock_pose_2-0014_raw.maegz

> <i_m_source_file_index>
2

> <i_lp_mmshare_version>
42013

> <s_epik_input>
W0NIM11bQ0hdKFtDSDNdKWMxW2NIXVtjSF1bY0hdYyhbY0hdMSlDMihbQ0gyXVtDSDJdMilbTkhdW0NIMl1bQ0BASF0oW09IXSlbQ0BIXShbQ0gyXTMpW05IXUMoPU8pYyhbY0hdYyhbY0hdNClDKD1PKVtDSDNdKVtjSF1jNFtOSF1bQ0gyXVtDSDJdW0NIMl1bQ0gyXU9jKFtjSF01KVtjSF1bY0hdW2NIXWMzNQ==

> <s_epik_cmdline>
J2VwaWtfcHl0aG9uJywgJy1waCcsICc3LjAnLCAnLXRuJywgJzgnLCAnLW1hJywgJzIwMCcsICctaW1hZScsICc8aW5maWxlLm1hZT4nLCAnLW9tYWUnLCAnPG91dGZpbGUubWFlPic=

> <r_lp_tautomer_probability>
0.99995

> <r_epik_Ionization_Penalty>
0.322992

> <r_epik_Ionization_Penalty_Charging>
0

> <r_epik_Ionization_Penalty_Neutral>
0.322992

> <r_epik_State_Penalty>
0.317604

> <r_epik_Charging_Adjusted_Penalty>
0.317604

> <i_epik_Tot_Q>
0

> <i_epik_Tot_abs_Q>
0

> <i_f3d_flags>
0

> <s_lp_Force_Field>
OPLS_2005

> <r_lp_Energy>
56.9665

> <b_lp_Chiralities_Consistent>
1

> <s_lp_Variant>
BACE_14.smi:1-1

$$$$
BACE_14.smi:1
                    3D
 Structure written by MMmdl.
 86 90  0  0  1  0            999 V2000
    3.7679    4.0786    1.1813 C   0  0  0  0  0  0
    2.5105    4.9174    1.4584 C   0  0  0  0  0  0
    2.2105    5.8866    0.3043 C   0  0  0  0  0  0
    1.3126    4.0351    1.7825 C   0  0  0  0  0  0
    0.7119    4.0983    3.0574 C   0  0  0  0  0  0
   -0.3779    3.2639    3.3686 C   0  0  0  0  0  0
   -0.8672    2.3564    2.4104 C   0  0  0  0  0  0
   -0.2774    2.2817    1.1315 C   0  0  0  0  0  0
    0.8036    3.1343    0.8223 C   0  0  0  0  0  0
   -0.7741    1.2873    0.1245 C   0  0  0  0  0  0
   -2.2271    1.2252   -0.2827 C   0  0  0  0  0  0
   -1.1766    1.6644   -1.2824 C   0  0  0  0  0  0
   -0.1524   -0.0502    0.2377 N   0  3  0  0  0  0
    1.2654   -0.1074   -0.1768 C   0  0  0  0  0  0
    1.9009   -1.4718    0.1523 C   0  0  2  0  0  0
    3.4485   -1.5112    0.0233 C   0  0  2  0  0  0
    4.1257   -0.9926    1.3137 C   0  0  0  0  0  0
    5.6315   -0.8102    1.1959 C   0  0  0  0  0  0
    6.4689   -1.9416    1.1329 C   0  0  0  0  0  0
    7.8616   -1.7808    1.0273 C   0  0  0  0  0  0
    8.4192   -0.4895    0.9896 C   0  0  0  0  0  0
    7.5991    0.6557    1.0506 C   0  0  0  0  0  0
    6.1949    0.4846    1.1514 C   0  0  0  0  0  0
    8.2445    1.8745    1.0209 O   0  0  0  0  0  0
    7.4914    3.0813    0.9432 C   0  0  0  0  0  0
    6.9822    3.3413   -0.4859 C   0  0  0  0  0  0
    8.1145    3.4385   -1.5284 C   0  0  0  0  0  0
    8.0200    2.3965   -2.6541 C   0  0  0  0  0  0
    6.9535    2.7061   -3.5991 N   0  0  0  0  0  0
    5.9820    1.7473   -3.9210 C   0  0  0  0  0  0
    5.5249    0.7798   -2.9992 C   0  0  0  0  0  0
    4.5231   -0.1456   -3.3668 C   0  0  0  0  0  0
    4.0031   -0.1218   -4.6788 C   0  0  0  0  0  0
    4.4486    0.8405   -5.6147 C   0  0  0  0  0  0
    5.4312    1.7752   -5.2178 C   0  0  0  0  0  0
    3.9041    0.8980   -7.0016 C   0  0  0  0  0  0
    4.2382    1.7469   -7.8276 O   0  0  0  0  0  0
    2.8798   -0.1593   -7.4105 C   0  0  0  0  0  0
    4.0278   -1.1649   -2.3838 C   0  0  0  0  0  0
    3.6911   -2.2907   -2.7494 O   0  0  0  0  0  0
    3.9244   -0.7287   -1.1184 N   0  0  0  0  0  0
    1.3294   -2.4729   -0.6662 O   0  0  0  0  0  0
    1.6421   -1.7431    1.1768 H   0  0  0  0  0  0
    3.7746   -2.5458   -0.1026 H   0  0  0  0  0  0
    3.9944    3.4198    2.0203 H   0  0  0  0  0  0
    4.6334    4.7228    1.0287 H   0  0  0  0  0  0
    3.6555    3.4587    0.2912 H   0  0  0  0  0  0
    2.7202    5.5251    2.3400 H   0  0  0  0  0  0
    1.3514    6.5169    0.5361 H   0  0  0  0  0  0
    1.9946    5.3565   -0.6236 H   0  0  0  0  0  0
    3.0593    6.5450    0.1173 H   0  0  0  0  0  0
    1.0864    4.7826    3.8048 H   0  0  0  0  0  0
   -0.8335    3.3144    4.3467 H   0  0  0  0  0  0
   -1.6959    1.7113    2.6634 H   0  0  0  0  0  0
    1.2609    3.0775   -0.1549 H   0  0  0  0  0  0
   -2.6826    0.2503   -0.4471 H   0  0  0  0  0  0
   -2.8982    1.9951    0.0935 H   0  0  0  0  0  0
   -1.1585    2.7188   -1.5514 H   0  0  0  0  0  0
   -0.9523    0.9729   -2.0925 H   0  0  0  0  0  0
   -0.2175   -0.3461    1.2010 H   0  0  0  0  0  0
    1.3393    0.1160   -1.2421 H   0  0  0  0  0  0
    1.8193    0.6683    0.3490 H   0  0  0  0  0  0
    3.6856   -0.0389    1.6076 H   0  0  0  0  0  0
    3.9243   -1.6785    2.1375 H   0  0  0  0  0  0
    6.0456   -2.9349    1.1650 H   0  0  0  0  0  0
    8.5035   -2.6480    0.9790 H   0  0  0  0  0  0
    9.4908   -0.3761    0.9135 H   0  0  0  0  0  0
    5.5315    1.3339    1.1991 H   0  0  0  0  0  0
    6.6818    3.1014    1.6728 H   0  0  0  0  0  0
    8.1564    3.8950    1.2331 H   0  0  0  0  0  0
    6.2594    2.5781   -0.7662 H   0  0  0  0  0  0
    6.4247    4.2777   -0.4941 H   0  0  0  0  0  0
    8.1363    4.4417   -1.9564 H   0  0  0  0  0  0
    9.0796    3.3192   -1.0350 H   0  0  0  0  0  0
    8.9514    2.4116   -3.2203 H   0  0  0  0  0  0
    7.9468    1.3912   -2.2416 H   0  0  0  0  0  0
    7.1971    3.3561   -4.3331 H   0  0  0  0  0  0
    5.9294    0.7463   -1.9993 H   0  0  0  0  0  0
    3.2468   -0.8440   -4.9503 H   0  0  0  0  0  0
    5.7805    2.5224   -5.9166 H   0  0  0  0  0  0
    1.9836   -0.0806   -6.7948 H   0  0  0  0  0  0
    3.2977   -1.1600   -7.2982 H   0  0  0  0  0  0
    2.5898   -0.0274   -8.4532 H   0  0  0  0  0  0
    4.2184    0.2184   -0.9274 H   0  0  0  0  0  0
    1.7467   -3.2988   -0.4709 H   0  0  0  0  0  0
   -0.6725   -0.7009   -0.3338 H   0  0  0  0  0  0
  1  2  1  0  0  0
  1 45  1  0  0  0
  1 46  1  0  0  0
  1 47  1  0  0  0
  2  3  1  0  0  0
  2  4  1  0  0  0
  2 48  1  0  0  0
  3 49  1  0  0  0
  3 50  1  0  0  0
  3 51  1  0  0  0
  4  9  1  0  0  0
  4  5  2  0  0  0
  5  6  1  0  0  0
  5 52  1  0  0  0
  6  7  2  0  0  0
  6 53  1  0  0  0
  7  8  1  0  0  0
  7 54  1  0  0  0
  8  9  2  0  0  0
  8 10  1  0  0  0
  9 55  1  0  0  0
 10 12  1  0  0  0
 10 11  1  0  0  0
 10 13  1  0  0  0
 11 12  1  0  0  0
 11 56  1  0  0  0
 11 57  1  0  0  0
 12 58  1  0  0  0
 12 59  1  0  0  0
 13 14  1  0  0  0
 13 60  1  0  0  0
 13 86  1  0  0  0
 14 15  1  0  0  0
 14 61  1  0  0  0
 14 62  1  0  0  0
 15 43  1  0  0  0
 15 16  1  0  0  0
 15 42  1  0  0  0
 16 44  1  0  0  0
 16 41  1  0  0  0
 16 17  1  0  0  0
 17 18  1  0  0  0
 17 63  1  0  0  0
 17 64  1  0  0  0
 18 23  1  0  0  0
 18 19  2  0  0  0
 19 20  1  0  0  0
 19 65  1  0  0  0
 20 21  2  0  0  0
 20 66  1  0  0  0
 21 22  1  0  0  0
 21 67  1  0  0  0
 22 23  2  0  0  0
 22 24  1  0  0  0
 23 68  1  0  0  0
 24 25  1  0  0  0
 25 26  1  0  0  0
 25 69  1  0  0  0
 25 70  1  0  0  0
 26 27  1  0  0  0
 26 71  1  0  0  0
 26 72  1  0  0  0
 27 28  1  0  0  0
 27 73  1  0  0  0
 27 74  1  0  0  0
 28 29  1  0  0  0
 28 75  1  0  0  0
 28 76  1  0  0  0
 29 30  1  0  0  0
 29 77  1  0  0  0
 30 35  1  0  0  0
 30 31  2  0  0  0
 31 32  1  0  0  0
 31 78  1  0  0  0
 32 33  2  0  0  0
 32 39  1  0  0  0
 33 34  1  0  0  0
 33 79  1  0  0  0
 34 35  2  0  0  0
 34 36  1  0  0  0
 35 80  1  0  0  0
 36 37  2  0  0  0
 36 38  1  0  0  0
 38 81  1  0  0  0
 38 82  1  0  0  0
 38 83  1  0  0  0
 39 40  2  0  0  0
 39 41  1  0  0  0
 41 84  1  0  0  0
 42 85  1  0  0  0
M  CHG  1  13   1
M  END
> <i_f3d_flags>
0

> <chiral flag>
1

> <version>
0

> <s_i_glide_gridfile>
base1a_gride_6

> <i_i_glide_lignum>
28

> <i_i_glide_rotatable_bonds>
8

> <r_i_docking_score>
-3.70605238390102

> <r_i_glide_ligand_efficiency>
-0.0882393424738337

> <r_i_glide_ligand_efficiency_sa>
-0.306722305184164

> <r_i_glide_ligand_efficiency_ln>
-0.782252179341255

> <r_glide_XP_GScore>
-4.02365238390102

> <r_i_glide_gscore>
-4.02365238390102

> <r_i_glide_evdw>
-32.7043037414551

> <r_i_glide_ecoul>
-8.2701940536499

> <r_i_glide_energy>
-40.974497795105

> <r_i_glide_einternal>
5.79167699813843

> <r_i_glide_emodel>
-50.5105519132854

> <r_glide_XP_HBond>
-0.7

> <i_i_glide_confnum>
1

> <i_i_glide_posenum>
1

> <r_i_glide_eff_state_penalty>
0.3176

> <i_glide_XP_PoseRank>
1

> <s_m_source_file>
glide-dock_pose_2-0014_raw.maegz

> <i_m_source_file_index>
2

> <i_lp_mmshare_version>
42013

> <s_epik_input>
W0NIM11bQ0hdKFtDSDNdKWMxW2NIXVtjSF1bY0hdYyhbY0hdMSlDMihbQ0gyXVtDSDJdMilbTkhdW0NIMl1bQ0BASF0oW09IXSlbQ0BIXShbQ0gyXTMpW05IXUMoPU8pYyhbY0hdYyhbY0hdNClDKD1PKVtDSDNdKVtjSF1jNFtOSF1bQ0gyXVtDSDJdW0NIMl1bQ0gyXU9jKFtjSF01KVtjSF1bY0hdW2NIXWMzNQ==

> <s_epik_cmdline>
J2VwaWtfcHl0aG9uJywgJy1waCcsICc3LjAnLCAnLXRuJywgJzgnLCAnLW1hJywgJzIwMCcsICctaW1hZScsICc8aW5maWxlLm1hZT4nLCAnLW9tYWUnLCAnPG91dGZpbGUubWFlPic=

> <r_lp_tautomer_probability>
0.99995

> <r_epik_Ionization_Penalty>
0.51374

> <r_epik_Ionization_Penalty_Charging>
0.513699

> <r_epik_Ionization_Penalty_Neutral>
4.03684e-05

> <r_epik_State_Penalty>
0.521152

> <r_epik_Charging_Adjusted_Penalty>
1.03485

> <i_epik_Tot_Q>
1

> <i_epik_Tot_abs_Q>
1

> <i_f3d_flags>
0

> <s_lp_Force_Field>
OPLS_2005

> <r_lp_Energy>
49.1359

> <b_lp_Chiralities_Consistent>
1

> <s_lp_Variant>
BACE_14.smi:1-2

$$$$
