BACE_130.smi:1
                    3D
 Structure written by MMmdl.
 85 88  0  0  1  0            999 V2000
   22.6969   48.6288   -7.0066 C   0  0  0  0  0  0
   21.4605   48.1187   -6.5241 O   0  0  0  0  0  0
   21.3141   46.7558   -6.3667 C   0  0  0  0  0  0
   22.4173   45.8693   -6.4974 C   0  0  0  0  0  0
   22.2741   44.4863   -6.2943 C   0  0  0  0  0  0
   21.0175   43.9511   -5.9698 C   0  0  0  0  0  0
   20.8583   42.4524   -5.7451 C   0  0  0  0  0  0
   20.5663   41.6673   -7.0453 C   0  0  2  0  0  0
   19.3316   42.1422   -7.6708 N   0  0  0  0  0  0
   19.2615   42.7476   -8.8648 C   0  0  0  0  0  0
   20.2378   42.9517   -9.5869 O   0  0  0  0  0  0
   17.9072   43.2420   -9.2623 C   0  0  0  0  0  0
   16.7710   42.4086   -9.2155 C   0  0  0  0  0  0
   15.5174   42.8862   -9.6499 C   0  0  0  0  0  0
   14.3119   41.9588   -9.6489 C   0  0  0  0  0  0
   14.0613   41.3628  -10.9108 O   0  0  0  0  0  0
   15.3925   44.2307  -10.0659 C   0  0  0  0  0  0
   16.5137   45.0887  -10.0706 C   0  0  0  0  0  0
   17.7770   44.5647   -9.7181 C   0  0  0  0  0  0
   16.3436   46.4467  -10.3932 N   0  0  0  0  0  0
   17.3247   47.4253   -9.9287 C   0  0  0  0  0  0
   17.3701   47.5306   -8.3922 C   0  0  0  0  0  0
   18.5871   48.2983   -7.8548 C   0  0  0  0  0  0
   18.6681   48.2395   -6.3161 C   0  0  0  0  0  0
   18.8593   46.9124   -5.8318 O   0  0  0  0  0  0
   20.0349   46.2110   -6.0394 C   0  0  0  0  0  0
   19.9129   44.8176   -5.8583 C   0  0  0  0  0  0
   20.5062   40.1250   -6.9218 C   0  0  2  0  0  0
   20.0601   39.7505   -5.6399 O   0  0  0  0  0  0
   21.8480   39.3929   -7.1888 C   0  0  0  0  0  0
   22.3392   39.4827   -8.5933 N   0  3  0  0  0  0
   21.8014   38.4973   -9.5637 C   0  0  0  0  0  0
   20.4270   38.8835  -10.0625 C   0  0  0  0  0  0
   19.2745   38.2811   -9.5139 C   0  0  0  0  0  0
   17.9932   38.7548   -9.8607 C   0  0  0  0  0  0
   17.8724   39.7617  -10.8399 C   0  0  0  0  0  0
   19.0172   40.3129  -11.4440 C   0  0  0  0  0  0
   20.2963   39.8839  -11.0472 C   0  0  0  0  0  0
   16.7523   38.2283   -9.1535 C   0  0  0  0  0  0
   16.5648   36.7250   -9.3787 C   0  0  0  0  0  0
   16.7687   38.5677   -7.6555 C   0  0  0  0  0  0
   21.3975   41.8932   -7.7138 H   0  0  0  0  0  0
   19.7440   39.7496   -7.5883 H   0  0  0  0  0  0
   22.6072   49.7054   -7.1507 H   0  0  0  0  0  0
   22.9587   48.1890   -7.9700 H   0  0  0  0  0  0
   23.5051   48.4603   -6.2949 H   0  0  0  0  0  0
   23.4066   46.2265   -6.7392 H   0  0  0  0  0  0
   23.1343   43.8395   -6.3853 H   0  0  0  0  0  0
   20.0623   42.2984   -5.0156 H   0  0  0  0  0  0
   21.7680   42.0703   -5.2799 H   0  0  0  0  0  0
   18.4804   42.0519   -7.1309 H   0  0  0  0  0  0
   16.8650   41.3915   -8.8724 H   0  0  0  0  0  0
   14.4560   41.1691   -8.9097 H   0  0  0  0  0  0
   13.4291   42.5177   -9.3382 H   0  0  0  0  0  0
   13.3414   40.7504  -10.8003 H   0  0  0  0  0  0
   14.4240   44.6025  -10.3641 H   0  0  0  0  0  0
   18.6621   45.1828   -9.7404 H   0  0  0  0  0  0
   15.3988   46.7792  -10.5127 H   0  0  0  0  0  0
   17.0651   48.3978  -10.3489 H   0  0  0  0  0  0
   18.3061   47.1852  -10.3356 H   0  0  0  0  0  0
   17.3746   46.5381   -7.9414 H   0  0  0  0  0  0
   16.4604   48.0144   -8.0423 H   0  0  0  0  0  0
   18.5281   49.3384   -8.1778 H   0  0  0  0  0  0
   19.5000   47.8964   -8.2942 H   0  0  0  0  0  0
   17.7125   48.5735   -5.9148 H   0  0  0  0  0  0
   19.3901   48.9398   -5.8998 H   0  0  0  0  0  0
   18.9411   44.4054   -5.6401 H   0  0  0  0  0  0
   19.2237   40.1752   -5.4695 H   0  0  0  0  0  0
   22.6147   39.8168   -6.5396 H   0  0  0  0  0  0
   21.7691   38.3409   -6.9093 H   0  0  0  0  0  0
   22.1817   40.4130   -8.9542 H   0  0  0  0  0  0
   22.4601   38.4682  -10.4307 H   0  0  0  0  0  0
   21.8024   37.4896   -9.1476 H   0  0  0  0  0  0
   19.3750   37.5171   -8.7561 H   0  0  0  0  0  0
   16.8948   40.1228  -11.1297 H   0  0  0  0  0  0
   18.9116   41.0880  -12.1880 H   0  0  0  0  0  0
   21.1702   40.3424  -11.4867 H   0  0  0  0  0  0
   15.8851   38.7293   -9.5858 H   0  0  0  0  0  0
   16.4577   36.5112  -10.4396 H   0  0  0  0  0  0
   15.6650   36.3729   -8.8826 H   0  0  0  0  0  0
   17.4021   36.1441   -8.9922 H   0  0  0  0  0  0
   16.8898   39.6361   -7.4808 H   0  0  0  0  0  0
   17.5711   38.0495   -7.1288 H   0  0  0  0  0  0
   15.8265   38.2729   -7.1919 H   0  0  0  0  0  0
   23.3373   39.3189   -8.5760 H   0  0  0  0  0  0
  1  2  1  0  0  0
  1 44  1  0  0  0
  1 45  1  0  0  0
  1 46  1  0  0  0
  2  3  1  0  0  0
  3 26  1  0  0  0
  3  4  2  0  0  0
  4  5  1  0  0  0
  4 47  1  0  0  0
  5  6  2  0  0  0
  5 48  1  0  0  0
  6 27  1  0  0  0
  6  7  1  0  0  0
  7  8  1  0  0  0
  7 49  1  0  0  0
  7 50  1  0  0  0
  8 42  1  0  0  0
  8  9  1  0  0  0
  8 28  1  0  0  0
  9 10  1  0  0  0
  9 51  1  0  0  0
 10 11  2  0  0  0
 10 12  1  0  0  0
 12 19  1  0  0  0
 12 13  2  0  0  0
 13 14  1  0  0  0
 13 52  1  0  0  0
 14 15  1  0  0  0
 14 17  2  0  0  0
 15 16  1  0  0  0
 15 53  1  0  0  0
 15 54  1  0  0  0
 16 55  1  0  0  0
 17 18  1  0  0  0
 17 56  1  0  0  0
 18 19  2  0  0  0
 18 20  1  0  0  0
 19 57  1  0  0  0
 20 21  1  0  0  0
 20 58  1  0  0  0
 21 22  1  0  0  0
 21 59  1  0  0  0
 21 60  1  0  0  0
 22 23  1  0  0  0
 22 61  1  0  0  0
 22 62  1  0  0  0
 23 24  1  0  0  0
 23 63  1  0  0  0
 23 64  1  0  0  0
 24 25  1  0  0  0
 24 65  1  0  0  0
 24 66  1  0  0  0
 25 26  1  0  0  0
 26 27  2  0  0  0
 27 67  1  0  0  0
 28 43  1  0  0  0
 28 29  1  0  0  0
 28 30  1  0  0  0
 29 68  1  0  0  0
 30 31  1  0  0  0
 30 69  1  0  0  0
 30 70  1  0  0  0
 31 32  1  0  0  0
 31 71  1  0  0  0
 31 85  1  0  0  0
 32 33  1  0  0  0
 32 72  1  0  0  0
 32 73  1  0  0  0
 33 38  1  0  0  0
 33 34  2  0  0  0
 34 35  1  0  0  0
 34 74  1  0  0  0
 35 36  2  0  0  0
 35 39  1  0  0  0
 36 37  1  0  0  0
 36 75  1  0  0  0
 37 38  2  0  0  0
 37 76  1  0  0  0
 38 77  1  0  0  0
 39 40  1  0  0  0
 39 41  1  0  0  0
 39 78  1  0  0  0
 40 79  1  0  0  0
 40 80  1  0  0  0
 40 81  1  0  0  0
 41 82  1  0  0  0
 41 83  1  0  0  0
 41 84  1  0  0  0
M  CHG  1  31   1
M  END
> <s_m_source_file>
BACE_130.smi

> <i_m_source_file_index>
1

> <i_lp_mmshare_version>
42013

> <i_f3d_flags>
0

> <s_epik_input>
YzEyW2NIXVtjSF1jKE9bQ0gzXSljKFtjSF0yKU9bQ0gyXVtDSDJdW0NIMl1bQ0gyXVtOSF1jM1tjSF1jKFtDSDJdW09IXSlbY0hdYyhbY0hdMylDKD1PKVtOSF1bQ0BASF0oW0NIMl0xKVtDQEhdKFtPSF0pW0NIMl1bTkhdW0NIMl1jNFtjSF1jKFtDSF0oW0NIM10pW0NIM10pW2NIXVtjSF1bY0hdNA==

> <s_epik_cmdline>
J2VwaWtfcHl0aG9uJywgJy1waCcsICc3LjAnLCAnLXRuJywgJzgnLCAnLW1hJywgJzIwMCcsICctaW1hZScsICc8aW5maWxlLm1hZT4nLCAnLW9tYWUnLCAnPG91dGZpbGUubWFlPic=

> <r_lp_tautomer_probability>
1

> <r_epik_Ionization_Penalty>
  0.0195

> <r_epik_Ionization_Penalty_Charging>
  0.0191

> <r_epik_Ionization_Penalty_Neutral>
  0.0004

> <r_epik_State_Penalty>
  0.0153

> <r_epik_Charging_Adjusted_Penalty>
0.0343718

> <i_epik_Tot_Q>
1

> <i_epik_Tot_abs_Q>
1

> <s_lp_Force_Field>
OPLS_2005

> <r_lp_Energy>
39.3681

> <b_lp_Chiralities_Consistent>
1

> <s_lp_Variant>
BACE_130.smi:1-1

> <chiral flag>
1

> <version>
0

> <s_i_glide_gridfile>
second_dock_grid_2

> <i_i_glide_lignum>
63

> <i_i_glide_rotatable_bonds>
10

> <r_i_docking_score>
-5.58952

> <r_i_glide_ligand_efficiency>
-0.13633

> <r_i_glide_ligand_efficiency_sa>
-0.470095

> <r_i_glide_ligand_efficiency_ln>
-1.18584

> <r_glide_XP_GScore>
-5.60482

> <r_i_glide_gscore>
-5.60482

> <r_i_glide_evdw>
-40.3032

> <r_i_glide_ecoul>
-18.0118

> <r_i_glide_energy>
-58.315

> <r_i_glide_einternal>
6.27505

> <r_i_glide_emodel>
-82.8686

> <r_glide_XP_HBond>
-0.953661

> <i_i_glide_confnum>
1

> <i_i_glide_posenum>
1

> <r_i_glide_eff_state_penalty>
0.0153

> <i_glide_XP_PoseRank>
1

$$$$
BACE_130.smi:1
                    3D
 Structure written by MMmdl.
 84 87  0  0  1  0            999 V2000
   29.2330   47.2088   -9.5254 C   0  0  0  0  0  0
   29.1207   46.9984   -8.1251 O   0  0  0  0  0  0
   28.0489   46.2779   -7.6385 C   0  0  0  0  0  0
   27.1320   45.6208   -8.5011 C   0  0  0  0  0  0
   26.0819   44.8395   -7.9890 C   0  0  0  0  0  0
   25.9369   44.6821   -6.6013 C   0  0  0  0  0  0
   24.8482   43.7809   -6.0470 C   0  0  0  0  0  0
   23.4856   44.4708   -5.7870 C   0  0  2  0  0  0
   23.6605   45.6979   -4.9991 N   0  0  0  0  0  0
   23.1041   46.9004   -5.2362 C   0  0  0  0  0  0
   22.2677   47.0957   -6.1176 O   0  0  0  0  0  0
   23.5103   48.0129   -4.2999 C   0  0  0  0  0  0
   22.6358   49.1010   -4.0602 C   0  0  0  0  0  0
   22.9988   50.1426   -3.1748 C   0  0  0  0  0  0
   22.0399   51.2786   -2.8462 C   0  0  0  0  0  0
   21.2600   51.7150   -3.9421 O   0  0  0  0  0  0
   24.2533   50.0951   -2.5337 C   0  0  0  0  0  0
   25.1515   49.0365   -2.7772 C   0  0  0  0  0  0
   24.7780   48.0053   -3.6699 C   0  0  0  0  0  0
   26.3745   49.0382   -2.0889 N   0  0  0  0  0  0
   27.5684   48.4337   -2.6695 C   0  0  0  0  0  0
   28.2270   49.3550   -3.7091 C   0  0  0  0  0  0
   29.5373   48.7881   -4.2847 C   0  0  0  0  0  0
   29.3335   47.9601   -5.5597 C   0  0  0  0  0  0
   28.6435   46.7545   -5.2565 O   0  0  0  0  0  0
   27.8693   46.1523   -6.2289 C   0  0  0  0  0  0
   26.8355   45.3332   -5.7349 C   0  0  0  0  0  0
   22.4408   43.5318   -5.1210 C   0  0  2  0  0  0
   22.9937   42.9506   -3.9527 O   0  0  0  0  0  0
   22.0225   42.3390   -6.0068 C   0  0  0  0  0  0
   20.8739   41.6458   -5.4233 N   0  0  0  0  0  0
   20.9439   40.1840   -5.4628 C   0  0  0  0  0  0
   20.6364   39.5704   -6.8161 C   0  0  0  0  0  0
   19.3082   39.2245   -7.1435 C   0  0  0  0  0  0
   19.0106   38.6012   -8.3745 C   0  0  0  0  0  0
   20.0583   38.3341   -9.2841 C   0  0  0  0  0  0
   21.3847   38.6848   -8.9640 C   0  0  0  0  0  0
   21.6743   39.3011   -7.7316 C   0  0  0  0  0  0
   17.5714   38.2231   -8.7073 C   0  0  0  0  0  0
   17.0673   38.9621   -9.9565 C   0  0  0  0  0  0
   17.3942   36.7020   -8.8411 C   0  0  0  0  0  0
   23.0893   44.7592   -6.7628 H   0  0  0  0  0  0
   21.5594   44.1149   -4.8497 H   0  0  0  0  0  0
   28.3520   47.7173   -9.9224 H   0  0  0  0  0  0
   29.3882   46.2705  -10.0608 H   0  0  0  0  0  0
   30.0959   47.8450   -9.7234 H   0  0  0  0  0  0
   27.2198   45.6835   -9.5740 H   0  0  0  0  0  0
   25.4062   44.3413   -8.6678 H   0  0  0  0  0  0
   25.2363   43.3500   -5.1254 H   0  0  0  0  0  0
   24.7138   42.9513   -6.7405 H   0  0  0  0  0  0
   24.3195   45.6277   -4.2330 H   0  0  0  0  0  0
   21.6666   49.1248   -4.5374 H   0  0  0  0  0  0
   21.3647   50.9460   -2.0569 H   0  0  0  0  0  0
   22.5838   52.1310   -2.4398 H   0  0  0  0  0  0
   20.3863   51.3503   -3.7995 H   0  0  0  0  0  0
   24.5286   50.8787   -1.8421 H   0  0  0  0  0  0
   25.4554   47.1879   -3.8594 H   0  0  0  0  0  0
   26.5488   49.8138   -1.4653 H   0  0  0  0  0  0
   27.3622   47.4516   -3.0904 H   0  0  0  0  0  0
   28.2718   48.2569   -1.8554 H   0  0  0  0  0  0
   28.4487   50.3123   -3.2400 H   0  0  0  0  0  0
   27.5270   49.5773   -4.5157 H   0  0  0  0  0  0
   30.0769   48.2128   -3.5314 H   0  0  0  0  0  0
   30.1937   49.6235   -4.5317 H   0  0  0  0  0  0
   30.3040   47.7128   -5.9923 H   0  0  0  0  0  0
   28.7865   48.5697   -6.2811 H   0  0  0  0  0  0
   26.7299   45.2156   -4.6669 H   0  0  0  0  0  0
   23.6908   43.5142   -3.6359 H   0  0  0  0  0  0
   21.7622   42.6834   -7.0085 H   0  0  0  0  0  0
   22.8630   41.6562   -6.1301 H   0  0  0  0  0  0
   20.7644   41.9411   -4.4577 H   0  0  0  0  0  0
   21.9154   39.8341   -5.1083 H   0  0  0  0  0  0
   20.2152   39.7786   -4.7607 H   0  0  0  0  0  0
   18.5158   39.4305   -6.4375 H   0  0  0  0  0  0
   19.8507   37.8541  -10.2287 H   0  0  0  0  0  0
   22.1832   38.4700   -9.6599 H   0  0  0  0  0  0
   22.6949   39.5553   -7.4875 H   0  0  0  0  0  0
   16.9444   38.5384   -7.8715 H   0  0  0  0  0  0
   17.1336   40.0412   -9.8218 H   0  0  0  0  0  0
   16.0237   38.7203  -10.1602 H   0  0  0  0  0  0
   17.6503   38.7016  -10.8401 H   0  0  0  0  0  0
   17.6616   36.1984   -7.9124 H   0  0  0  0  0  0
   18.0101   36.2895   -9.6399 H   0  0  0  0  0  0
   16.3556   36.4504   -9.0567 H   0  0  0  0  0  0
  1  2  1  0  0  0
  1 44  1  0  0  0
  1 45  1  0  0  0
  1 46  1  0  0  0
  2  3  1  0  0  0
  3 26  1  0  0  0
  3  4  2  0  0  0
  4  5  1  0  0  0
  4 47  1  0  0  0
  5  6  2  0  0  0
  5 48  1  0  0  0
  6 27  1  0  0  0
  6  7  1  0  0  0
  7  8  1  0  0  0
  7 49  1  0  0  0
  7 50  1  0  0  0
  8 42  1  0  0  0
  8  9  1  0  0  0
  8 28  1  0  0  0
  9 10  1  0  0  0
  9 51  1  0  0  0
 10 11  2  0  0  0
 10 12  1  0  0  0
 12 19  1  0  0  0
 12 13  2  0  0  0
 13 14  1  0  0  0
 13 52  1  0  0  0
 14 15  1  0  0  0
 14 17  2  0  0  0
 15 16  1  0  0  0
 15 53  1  0  0  0
 15 54  1  0  0  0
 16 55  1  0  0  0
 17 18  1  0  0  0
 17 56  1  0  0  0
 18 19  2  0  0  0
 18 20  1  0  0  0
 19 57  1  0  0  0
 20 21  1  0  0  0
 20 58  1  0  0  0
 21 22  1  0  0  0
 21 59  1  0  0  0
 21 60  1  0  0  0
 22 23  1  0  0  0
 22 61  1  0  0  0
 22 62  1  0  0  0
 23 24  1  0  0  0
 23 63  1  0  0  0
 23 64  1  0  0  0
 24 25  1  0  0  0
 24 65  1  0  0  0
 24 66  1  0  0  0
 25 26  1  0  0  0
 26 27  2  0  0  0
 27 67  1  0  0  0
 28 43  1  0  0  0
 28 29  1  0  0  0
 28 30  1  0  0  0
 29 68  1  0  0  0
 30 31  1  0  0  0
 30 69  1  0  0  0
 30 70  1  0  0  0
 31 32  1  0  0  0
 31 71  1  0  0  0
 32 33  1  0  0  0
 32 72  1  0  0  0
 32 73  1  0  0  0
 33 38  1  0  0  0
 33 34  2  0  0  0
 34 35  1  0  0  0
 34 74  1  0  0  0
 35 36  2  0  0  0
 35 39  1  0  0  0
 36 37  1  0  0  0
 36 75  1  0  0  0
 37 38  2  0  0  0
 37 76  1  0  0  0
 38 77  1  0  0  0
 39 40  1  0  0  0
 39 41  1  0  0  0
 39 78  1  0  0  0
 40 79  1  0  0  0
 40 80  1  0  0  0
 40 81  1  0  0  0
 41 82  1  0  0  0
 41 83  1  0  0  0
 41 84  1  0  0  0
M  END
> <s_m_source_file>
BACE_130.smi

> <i_m_source_file_index>
1

> <i_lp_mmshare_version>
42013

> <i_f3d_flags>
0

> <s_epik_input>
YzEyW2NIXVtjSF1jKE9bQ0gzXSljKFtjSF0yKU9bQ0gyXVtDSDJdW0NIMl1bQ0gyXVtOSF1jM1tjSF1jKFtDSDJdW09IXSlbY0hdYyhbY0hdMylDKD1PKVtOSF1bQ0BASF0oW0NIMl0xKVtDQEhdKFtPSF0pW0NIMl1bTkhdW0NIMl1jNFtjSF1jKFtDSF0oW0NIM10pW0NIM10pW2NIXVtjSF1bY0hdNA==

> <s_epik_cmdline>
J2VwaWtfcHl0aG9uJywgJy1waCcsICc3LjAnLCAnLXRuJywgJzgnLCAnLW1hJywgJzIwMCcsICctaW1hZScsICc8aW5maWxlLm1hZT4nLCAnLW9tYWUnLCAnPG91dGZpbGUubWFlPic=

> <r_lp_tautomer_probability>
1

> <r_epik_Ionization_Penalty>
  2.0444

> <r_epik_Ionization_Penalty_Charging>
  0.0000

> <r_epik_Ionization_Penalty_Neutral>
  2.0444

> <r_epik_State_Penalty>
  2.1759

> <r_epik_Charging_Adjusted_Penalty>
2.17586

> <i_epik_Tot_Q>
0

> <i_epik_Tot_abs_Q>
0

> <s_lp_Force_Field>
OPLS_2005

> <r_lp_Energy>
46.621

> <b_lp_Chiralities_Consistent>
1

> <s_lp_Variant>
BACE_130.smi:1-2

> <chiral flag>
1

> <version>
0

> <s_i_glide_gridfile>
second_dock_grid_2

> <i_i_glide_lignum>
64

> <i_i_glide_rotatable_bonds>
10

> <r_i_docking_score>
-2.58568

> <r_i_glide_ligand_efficiency>
-0.0630653

> <r_i_glide_ligand_efficiency_sa>
-0.217463

> <r_i_glide_ligand_efficiency_ln>
-0.54856

> <r_glide_XP_GScore>
-4.76158

> <r_i_glide_gscore>
-4.76158

> <r_i_glide_evdw>
-41.5874

> <r_i_glide_ecoul>
-12.0748

> <r_i_glide_energy>
-53.6622

> <r_i_glide_einternal>
0

> <r_i_glide_emodel>
-77.1414

> <r_glide_XP_HBond>
-0.520043

> <i_i_glide_confnum>
1

> <i_i_glide_posenum>
6

> <r_i_glide_eff_state_penalty>
2.1759

> <i_glide_XP_PoseRank>
1

$$$$
