BACE_127.smi:1
                    3D
 Structure written by MMmdl.
 84 87  0  0  1  0            999 V2000
   20.0553   43.3339   -1.2876 C   0  0  0  0  0  0
   21.3367   42.7489   -1.4545 O   0  0  0  0  0  0
   21.3633   41.7269   -2.4409 C   0  0  0  0  0  0
   21.5128   42.2516   -3.8478 C   0  0  0  0  0  0
   22.4606   43.2502   -4.1334 C   0  0  0  0  0  0
   22.6306   43.7198   -5.4493 C   0  0  0  0  0  0
   21.8009   43.2056   -6.4779 C   0  0  0  0  0  0
   20.8808   42.1687   -6.2060 C   0  0  0  0  0  0
   20.7626   41.6837   -4.8893 C   0  0  0  0  0  0
   20.0297   41.5958   -7.3012 C   0  0  0  0  0  0
   19.5312   42.3179   -8.1662 O   0  0  0  0  0  0
   19.9160   40.2591   -7.2794 N   0  0  0  0  0  0
   19.2432   39.4176   -8.2750 C   0  0  1  0  0  0
   20.3050   38.8077   -9.2287 C   0  0  0  0  0  0
   21.1432   39.8779   -9.9085 C   0  0  0  0  0  0
   22.4591   40.1445   -9.4708 C   0  0  0  0  0  0
   23.2095   41.2058  -10.0154 C   0  0  0  0  0  0
   22.6179   42.0040  -11.0240 C   0  0  0  0  0  0
   21.3159   41.7251  -11.4841 C   0  0  0  0  0  0
   20.5807   40.6649  -10.9326 C   0  0  0  0  0  0
   24.4832   41.3788   -9.5180 O   0  0  0  0  0  0
   25.2617   42.5036   -9.9190 C   0  0  0  0  0  0
   24.7960   43.8022   -9.2302 C   0  0  0  0  0  0
   24.7949   43.7110   -7.6945 C   0  0  0  0  0  0
   24.1025   44.9233   -7.0385 C   0  0  0  0  0  0
   23.6501   44.6560   -5.6751 N   0  0  0  0  0  0
   18.3695   38.3694   -7.5388 C   0  0  2  0  0  0
   17.8880   37.3668   -8.4224 O   0  0  0  0  0  0
   17.1961   39.0296   -6.7691 C   0  0  0  0  0  0
   15.8698   38.5771   -7.2400 N   0  3  0  0  0  0
   14.8382   39.6237   -7.3526 C   0  0  0  0  0  0
   15.1412   40.5095   -8.5341 C   0  0  0  0  0  0
   14.8285   40.2778   -9.9046 C   0  0  0  0  0  0
   15.2792   41.2310  -10.7060 N   0  0  0  0  0  0
   15.8649   42.1177   -9.8702 N   0  0  0  0  0  0
   16.4903   43.3147  -10.4025 C   0  0  0  0  0  0
   15.5532   44.5431  -10.4042 C   0  0  0  0  0  0
   16.2977   45.7887  -10.9043 C   0  0  0  0  0  0
   14.2631   44.3201  -11.2160 C   0  0  0  0  0  0
   15.7833   41.7145   -8.5543 C   0  0  0  0  0  0
   18.5767   40.0328   -8.8825 H   0  0  0  0  0  0
   19.0022   37.8482   -6.8188 H   0  0  0  0  0  0
   20.1108   44.1362   -0.5539 H   0  0  0  0  0  0
   19.3335   42.6015   -0.9264 H   0  0  0  0  0  0
   19.6772   43.7512   -2.2205 H   0  0  0  0  0  0
   20.5010   41.0629   -2.3452 H   0  0  0  0  0  0
   22.2476   41.1131   -2.2942 H   0  0  0  0  0  0
   23.0717   43.6399   -3.3321 H   0  0  0  0  0  0
   21.8923   43.5531   -7.4940 H   0  0  0  0  0  0
   20.0601   40.8972   -4.6601 H   0  0  0  0  0  0
   20.3967   39.7787   -6.5345 H   0  0  0  0  0  0
   20.9595   38.1299   -8.6790 H   0  0  0  0  0  0
   19.8259   38.2099  -10.0060 H   0  0  0  0  0  0
   22.9004   39.5417   -8.6922 H   0  0  0  0  0  0
   23.1529   42.8193  -11.4869 H   0  0  0  0  0  0
   20.8792   42.3288  -12.2603 H   0  0  0  0  0  0
   19.5717   40.4755  -11.2700 H   0  0  0  0  0  0
   26.2954   42.2994   -9.6398 H   0  0  0  0  0  0
   25.2776   42.6068  -11.0055 H   0  0  0  0  0  0
   25.4317   44.6286   -9.5446 H   0  0  0  0  0  0
   23.7916   44.0519   -9.5730 H   0  0  0  0  0  0
   24.2908   42.7887   -7.4118 H   0  0  0  0  0  0
   25.8127   43.6134   -7.3156 H   0  0  0  0  0  0
   24.7935   45.7674   -7.0194 H   0  0  0  0  0  0
   23.2511   45.2541   -7.6343 H   0  0  0  0  0  0
   24.3192   44.8056   -4.9310 H   0  0  0  0  0  0
   17.5864   36.6374   -7.8944 H   0  0  0  0  0  0
   17.2780   38.7963   -5.7101 H   0  0  0  0  0  0
   17.2635   40.1172   -6.8394 H   0  0  0  0  0  0
   16.0108   38.1407   -8.1404 H   0  0  0  0  0  0
   13.8702   39.1335   -7.4716 H   0  0  0  0  0  0
   14.7862   40.1834   -6.4163 H   0  0  0  0  0  0
   14.3047   39.4381  -10.3388 H   0  0  0  0  0  0
   17.3761   43.5222   -9.7980 H   0  0  0  0  0  0
   16.8523   43.1035  -11.4088 H   0  0  0  0  0  0
   15.2608   44.7350   -9.3714 H   0  0  0  0  0  0
   17.1922   45.9771  -10.3079 H   0  0  0  0  0  0
   15.6680   46.6787  -10.8406 H   0  0  0  0  0  0
   16.6104   45.6740  -11.9424 H   0  0  0  0  0  0
   13.6551   43.5211  -10.7923 H   0  0  0  0  0  0
   14.4855   44.0565  -12.2502 H   0  0  0  0  0  0
   13.6445   45.2171  -11.2325 H   0  0  0  0  0  0
   16.2032   42.3026   -7.7501 H   0  0  0  0  0  0
   15.5798   37.8514   -6.5814 H   0  0  0  0  0  0
  1  2  1  0  0  0
  1 43  1  0  0  0
  1 44  1  0  0  0
  1 45  1  0  0  0
  2  3  1  0  0  0
  3  4  1  0  0  0
  3 46  1  0  0  0
  3 47  1  0  0  0
  4  9  1  0  0  0
  4  5  2  0  0  0
  5  6  1  0  0  0
  5 48  1  0  0  0
  6 26  1  0  0  0
  6  7  2  0  0  0
  7  8  1  0  0  0
  7 49  1  0  0  0
  8  9  2  0  0  0
  8 10  1  0  0  0
  9 50  1  0  0  0
 10 11  2  0  0  0
 10 12  1  0  0  0
 12 13  1  0  0  0
 12 51  1  0  0  0
 13 41  1  0  0  0
 13 14  1  0  0  0
 13 27  1  0  0  0
 14 15  1  0  0  0
 14 52  1  0  0  0
 14 53  1  0  0  0
 15 20  1  0  0  0
 15 16  2  0  0  0
 16 17  1  0  0  0
 16 54  1  0  0  0
 17 18  2  0  0  0
 17 21  1  0  0  0
 18 19  1  0  0  0
 18 55  1  0  0  0
 19 20  2  0  0  0
 19 56  1  0  0  0
 20 57  1  0  0  0
 21 22  1  0  0  0
 22 23  1  0  0  0
 22 58  1  0  0  0
 22 59  1  0  0  0
 23 24  1  0  0  0
 23 60  1  0  0  0
 23 61  1  0  0  0
 24 25  1  0  0  0
 24 62  1  0  0  0
 24 63  1  0  0  0
 25 26  1  0  0  0
 25 64  1  0  0  0
 25 65  1  0  0  0
 26 66  1  0  0  0
 27 42  1  0  0  0
 27 28  1  0  0  0
 27 29  1  0  0  0
 28 67  1  0  0  0
 29 30  1  0  0  0
 29 68  1  0  0  0
 29 69  1  0  0  0
 30 31  1  0  0  0
 30 70  1  0  0  0
 30 84  1  0  0  0
 31 32  1  0  0  0
 31 71  1  0  0  0
 31 72  1  0  0  0
 32 40  2  0  0  0
 32 33  1  0  0  0
 33 34  2  0  0  0
 33 73  1  0  0  0
 34 35  1  0  0  0
 35 36  1  0  0  0
 35 40  1  0  0  0
 36 37  1  0  0  0
 36 74  1  0  0  0
 36 75  1  0  0  0
 37 38  1  0  0  0
 37 39  1  0  0  0
 37 76  1  0  0  0
 38 77  1  0  0  0
 38 78  1  0  0  0
 38 79  1  0  0  0
 39 80  1  0  0  0
 39 81  1  0  0  0
 39 82  1  0  0  0
 40 83  1  0  0  0
M  CHG  1  30   1
M  END
> <s_m_source_file>
BACE_127.smi

> <i_m_source_file_index>
1

> <i_lp_mmshare_version>
42013

> <i_f3d_flags>
0

> <s_epik_input>
W05IXTFbQ0gyXVtDSDJdW0NIMl1bQ0gyXU9jKFtjSF1bY0hdW2NIXTIpW2NIXWMyW0NIMl1bQ0BIXShbTkhdQyg9TyljKFtjSF0zKVtjSF1jKFtjSF1jMTMpW0NIMl1PW0NIM10pW0NASF0oW09IXSlbQ0gyXVtOSF1bQ0gyXWM0W2NIXW5uKFtjSF00KVtDSDJdW0NIXShbQ0gzXSlbQ0gzXQ==

> <s_epik_cmdline>
J2VwaWtfcHl0aG9uJywgJy1waCcsICc3LjAnLCAnLXRuJywgJzgnLCAnLW1hJywgJzIwMCcsICctaW1hZScsICc8aW5maWxlLm1hZT4nLCAnLW9tYWUnLCAnPG91dGZpbGUubWFlPic=

> <r_lp_tautomer_probability>
1

> <r_epik_Ionization_Penalty>
  0.0640

> <r_epik_Ionization_Penalty_Charging>
  0.0637

> <r_epik_Ionization_Penalty_Neutral>
  0.0003

> <r_epik_State_Penalty>
  0.0554

> <r_epik_Charging_Adjusted_Penalty>
0.11906

> <i_epik_Tot_Q>
1

> <i_epik_Tot_abs_Q>
1

> <s_lp_Force_Field>
OPLS_2005

> <r_lp_Energy>
30.7781

> <b_lp_Chiralities_Consistent>
1

> <s_lp_Variant>
BACE_127.smi:1-1

> <chiral flag>
1

> <version>
0

> <s_i_glide_gridfile>
second_dock_grid_2

> <i_i_glide_lignum>
59

> <i_i_glide_rotatable_bonds>
10

> <r_i_docking_score>
-6.76246

> <r_i_glide_ligand_efficiency>
-0.169062

> <r_i_glide_ligand_efficiency_sa>
-0.578182

> <r_i_glide_ligand_efficiency_ln>
-1.44223

> <r_glide_XP_GScore>
-6.81786

> <r_i_glide_gscore>
-6.81786

> <r_i_glide_evdw>
-44.184

> <r_i_glide_ecoul>
-15.9526

> <r_i_glide_energy>
-60.1366

> <r_i_glide_einternal>
4.316

> <r_i_glide_emodel>
-85.5655

> <r_glide_XP_HBond>
-1.39453

> <i_i_glide_confnum>
1

> <i_i_glide_posenum>
30

> <r_i_glide_eff_state_penalty>
0.0554

> <i_glide_XP_PoseRank>
1

$$$$
BACE_127.smi:1
                    3D
 Structure written by MMmdl.
 83 86  0  0  1  0            999 V2000
   19.7355   49.5527   -6.5223 C   0  0  0  0  0  0
   19.6303   48.1772   -6.2046 O   0  0  0  0  0  0
   19.2591   47.3884   -7.3241 C   0  0  0  0  0  0
   19.3182   45.9010   -7.0340 C   0  0  0  0  0  0
   19.9832   45.4110   -5.8916 C   0  0  0  0  0  0
   20.0602   44.0290   -5.6362 C   0  0  0  0  0  0
   19.4842   43.1264   -6.5612 C   0  0  0  0  0  0
   18.7693   43.6036   -7.6828 C   0  0  0  0  0  0
   18.7146   44.9929   -7.9255 C   0  0  0  0  0  0
   18.0633   42.6652   -8.6180 C   0  0  0  0  0  0
   18.1197   42.8486   -9.8339 O   0  0  0  0  0  0
   17.2898   41.7261   -8.0400 N   0  0  0  0  0  0
   16.3461   40.8236   -8.7305 C   0  0  1  0  0  0
   16.5512   39.3425   -8.3130 C   0  0  0  0  0  0
   18.0187   38.9539   -8.2458 C   0  0  0  0  0  0
   18.7463   39.2564   -7.0814 C   0  0  0  0  0  0
   20.1405   39.1231   -7.0346 C   0  0  0  0  0  0
   20.8080   38.5528   -8.1460 C   0  0  0  0  0  0
   20.0738   38.1748   -9.2906 C   0  0  0  0  0  0
   18.6826   38.3926   -9.3535 C   0  0  0  0  0  0
   20.7446   39.6107   -5.8994 O   0  0  0  0  0  0
   22.1522   39.5884   -5.8252 C   0  0  0  0  0  0
   22.6167   40.3184   -4.5551 C   0  0  0  0  0  0
   22.3716   41.8344   -4.6132 C   0  0  0  0  0  0
   20.9746   42.2430   -4.1228 C   0  0  0  0  0  0
   20.6773   43.6326   -4.4399 N   0  0  0  0  0  0
   14.8693   41.3004   -8.5701 C   0  0  2  0  0  0
   14.1346   40.7310   -9.6398 O   0  0  0  0  0  0
   14.7690   42.8493   -8.5976 C   0  0  0  0  0  0
   13.4306   43.4407   -8.7476 N   0  0  0  0  0  0
   12.9245   43.5617  -10.1151 C   0  0  0  0  0  0
   13.6597   44.5439  -10.9949 C   0  0  0  0  0  0
   13.2418   44.9406  -12.2903 C   0  0  0  0  0  0
   14.0720   45.7849  -12.8577 N   0  0  0  0  0  0
   15.1124   45.8772  -12.0062 N   0  0  0  0  0  0
   16.2794   46.6644  -12.3717 C   0  0  0  0  0  0
   17.6276   45.9511  -12.1021 C   0  0  0  0  0  0
   17.6746   44.4858  -12.5817 C   0  0  0  0  0  0
   18.7987   46.7506  -12.6928 C   0  0  0  0  0  0
   14.8600   45.1872  -10.8417 C   0  0  0  0  0  0
   16.5938   40.8657   -9.7941 H   0  0  0  0  0  0
   14.4606   40.9337   -7.6250 H   0  0  0  0  0  0
   20.0594   50.1046   -5.6387 H   0  0  0  0  0  0
   18.7750   49.9547   -6.8527 H   0  0  0  0  0  0
   20.4722   49.7216   -7.3124 H   0  0  0  0  0  0
   19.9262   47.5894   -8.1633 H   0  0  0  0  0  0
   18.2493   47.6562   -7.6392 H   0  0  0  0  0  0
   20.4514   46.1009   -5.2039 H   0  0  0  0  0  0
   19.5352   42.0606   -6.3993 H   0  0  0  0  0  0
   18.1913   45.3694   -8.7922 H   0  0  0  0  0  0
   17.3106   41.6662   -7.0288 H   0  0  0  0  0  0
   16.1128   39.1676   -7.3288 H   0  0  0  0  0  0
   16.0277   38.6770   -9.0003 H   0  0  0  0  0  0
   18.2344   39.6885   -6.2363 H   0  0  0  0  0  0
   21.8779   38.4132   -8.1535 H   0  0  0  0  0  0
   20.5866   37.7501  -10.1388 H   0  0  0  0  0  0
   18.1374   38.1497  -10.2550 H   0  0  0  0  0  0
   22.4599   38.5493   -5.7898 H   0  0  0  0  0  0
   22.6106   40.0480   -6.7007 H   0  0  0  0  0  0
   22.1519   39.8836   -3.6706 H   0  0  0  0  0  0
   23.6851   40.1501   -4.4389 H   0  0  0  0  0  0
   23.1175   42.3385   -3.9978 H   0  0  0  0  0  0
   22.5365   42.1930   -5.6309 H   0  0  0  0  0  0
   20.2099   41.5780   -4.5100 H   0  0  0  0  0  0
   20.9315   42.1216   -3.0373 H   0  0  0  0  0  0
   20.8605   44.3331   -3.7246 H   0  0  0  0  0  0
   13.2263   40.6681   -9.3600 H   0  0  0  0  0  0
   15.1901   43.2080   -7.6517 H   0  0  0  0  0  0
   15.4328   43.2037   -9.3807 H   0  0  0  0  0  0
   12.7676   42.8603   -8.2400 H   0  0  0  0  0  0
   12.8828   42.5851  -10.5967 H   0  0  0  0  0  0
   11.8815   43.8672  -10.0504 H   0  0  0  0  0  0
   12.3600   44.6387  -12.8301 H   0  0  0  0  0  0
   16.2068   46.9077  -13.4333 H   0  0  0  0  0  0
   16.2388   47.6103  -11.8321 H   0  0  0  0  0  0
   17.7709   45.9282  -11.0232 H   0  0  0  0  0  0
   16.9642   43.8563  -12.0422 H   0  0  0  0  0  0
   18.6630   44.0535  -12.4183 H   0  0  0  0  0  0
   17.4456   44.3995  -13.6398 H   0  0  0  0  0  0
   18.8050   47.7740  -12.3148 H   0  0  0  0  0  0
   18.7435   46.7968  -13.7801 H   0  0  0  0  0  0
   19.7577   46.2955  -12.4397 H   0  0  0  0  0  0
   15.5706   45.1968  -10.0295 H   0  0  0  0  0  0
  1  2  1  0  0  0
  1 43  1  0  0  0
  1 44  1  0  0  0
  1 45  1  0  0  0
  2  3  1  0  0  0
  3  4  1  0  0  0
  3 46  1  0  0  0
  3 47  1  0  0  0
  4  9  1  0  0  0
  4  5  2  0  0  0
  5  6  1  0  0  0
  5 48  1  0  0  0
  6 26  1  0  0  0
  6  7  2  0  0  0
  7  8  1  0  0  0
  7 49  1  0  0  0
  8  9  2  0  0  0
  8 10  1  0  0  0
  9 50  1  0  0  0
 10 11  2  0  0  0
 10 12  1  0  0  0
 12 13  1  0  0  0
 12 51  1  0  0  0
 13 41  1  0  0  0
 13 14  1  0  0  0
 13 27  1  0  0  0
 14 15  1  0  0  0
 14 52  1  0  0  0
 14 53  1  0  0  0
 15 20  1  0  0  0
 15 16  2  0  0  0
 16 17  1  0  0  0
 16 54  1  0  0  0
 17 18  2  0  0  0
 17 21  1  0  0  0
 18 19  1  0  0  0
 18 55  1  0  0  0
 19 20  2  0  0  0
 19 56  1  0  0  0
 20 57  1  0  0  0
 21 22  1  0  0  0
 22 23  1  0  0  0
 22 58  1  0  0  0
 22 59  1  0  0  0
 23 24  1  0  0  0
 23 60  1  0  0  0
 23 61  1  0  0  0
 24 25  1  0  0  0
 24 62  1  0  0  0
 24 63  1  0  0  0
 25 26  1  0  0  0
 25 64  1  0  0  0
 25 65  1  0  0  0
 26 66  1  0  0  0
 27 42  1  0  0  0
 27 28  1  0  0  0
 27 29  1  0  0  0
 28 67  1  0  0  0
 29 30  1  0  0  0
 29 68  1  0  0  0
 29 69  1  0  0  0
 30 31  1  0  0  0
 30 70  1  0  0  0
 31 32  1  0  0  0
 31 71  1  0  0  0
 31 72  1  0  0  0
 32 40  2  0  0  0
 32 33  1  0  0  0
 33 34  2  0  0  0
 33 73  1  0  0  0
 34 35  1  0  0  0
 35 36  1  0  0  0
 35 40  1  0  0  0
 36 37  1  0  0  0
 36 74  1  0  0  0
 36 75  1  0  0  0
 37 38  1  0  0  0
 37 39  1  0  0  0
 37 76  1  0  0  0
 38 77  1  0  0  0
 38 78  1  0  0  0
 38 79  1  0  0  0
 39 80  1  0  0  0
 39 81  1  0  0  0
 39 82  1  0  0  0
 40 83  1  0  0  0
M  END
> <s_m_source_file>
BACE_127.smi

> <i_m_source_file_index>
1

> <i_lp_mmshare_version>
42013

> <i_f3d_flags>
0

> <s_epik_input>
W05IXTFbQ0gyXVtDSDJdW0NIMl1bQ0gyXU9jKFtjSF1bY0hdW2NIXTIpW2NIXWMyW0NIMl1bQ0BIXShbTkhdQyg9TyljKFtjSF0zKVtjSF1jKFtjSF1jMTMpW0NIMl1PW0NIM10pW0NASF0oW09IXSlbQ0gyXVtOSF1bQ0gyXWM0W2NIXW5uKFtjSF00KVtDSDJdW0NIXShbQ0gzXSlbQ0gzXQ==

> <s_epik_cmdline>
J2VwaWtfcHl0aG9uJywgJy1waCcsICc3LjAnLCAnLXRuJywgJzgnLCAnLW1hJywgJzIwMCcsICctaW1hZScsICc8aW5maWxlLm1hZT4nLCAnLW9tYWUnLCAnPG91dGZpbGUubWFlPic=

> <r_lp_tautomer_probability>
1

> <r_epik_Ionization_Penalty>
  1.3539

> <r_epik_Ionization_Penalty_Charging>
  0.0000

> <r_epik_Ionization_Penalty_Neutral>
  1.3539

> <r_epik_State_Penalty>
  1.4315

> <r_epik_Charging_Adjusted_Penalty>
1.43151

> <i_epik_Tot_Q>
0

> <i_epik_Tot_abs_Q>
0

> <s_lp_Force_Field>
OPLS_2005

> <r_lp_Energy>
38.3918

> <b_lp_Chiralities_Consistent>
1

> <s_lp_Variant>
BACE_127.smi:1-2

> <chiral flag>
1

> <version>
0

> <s_i_glide_gridfile>
second_dock_grid_2

> <i_i_glide_lignum>
60

> <i_i_glide_rotatable_bonds>
10

> <r_i_docking_score>
-5.79536

> <r_i_glide_ligand_efficiency>
-0.144884

> <r_i_glide_ligand_efficiency_sa>
-0.495497

> <r_i_glide_ligand_efficiency_ln>
-1.23598

> <r_glide_XP_GScore>
-7.22686

> <r_i_glide_gscore>
-7.22686

> <r_i_glide_evdw>
-39.191

> <r_i_glide_ecoul>
-16.6671

> <r_i_glide_energy>
-55.858

> <r_i_glide_einternal>
0

> <r_i_glide_emodel>
-75.2245

> <r_glide_XP_HBond>
-0.766926

> <i_i_glide_confnum>
1

> <i_i_glide_posenum>
34

> <r_i_glide_eff_state_penalty>
1.4315

> <i_glide_XP_PoseRank>
1

$$$$
