BACE_131.smi:1
                    3D
 Structure written by MMmdl.
 91 95  0  0  1  0            999 V2000
   21.5319   51.3030  -10.8954 C   0  0  0  0  0  0
   21.2250   52.0621   -9.6787 N   0  0  0  0  0  0
   21.9332   53.3412   -9.5858 C   0  0  0  0  0  0
   20.4534   51.6034   -8.6611 C   0  0  0  0  0  0
   20.4587   52.1236   -7.5431 O   0  0  0  0  0  0
   19.5588   50.4177   -8.9108 C   0  0  0  0  0  0
   18.7103   50.3829  -10.0373 C   0  0  0  0  0  0
   17.8629   49.2863  -10.2805 C   0  0  0  0  0  0
   17.8495   48.2074   -9.3614 C   0  0  0  0  0  0
   18.6688   48.2407   -8.2064 C   0  0  0  0  0  0
   19.5041   49.3574   -7.9795 C   0  0  0  0  0  0
   18.5997   47.1488   -7.1781 C   0  0  0  0  0  0
   18.4601   47.4364   -5.9864 O   0  0  0  0  0  0
   18.6957   45.8862   -7.6383 N   0  0  0  0  0  0
   18.4322   44.6813   -6.8398 C   0  0  1  0  0  0
   17.0983   44.0061   -7.2552 C   0  0  0  0  0  0
   17.0214   43.1867   -8.5451 C   0  0  0  0  0  0
   17.4518   43.6954   -9.7884 C   0  0  0  0  0  0
   17.2611   42.9556  -10.9878 C   0  0  0  0  0  0
   17.5673   43.4205  -12.2550 O   0  0  0  0  0  0
   18.1565   44.7081  -12.3951 C   0  0  0  0  0  0
   17.1888   45.8223  -12.0505 C   0  0  0  0  0  0
   17.3044   47.0970  -12.4422 C   0  0  0  0  0  0
   16.3702   48.1809  -11.9579 C   0  0  0  0  0  0
   17.0683   49.3450  -11.4375 N   0  0  0  0  0  0
   16.6813   41.6723  -10.9065 C   0  0  0  0  0  0
   16.4800   40.9544  -12.0387 F   0  0  0  0  0  0
   16.2865   41.1402   -9.6663 C   0  0  0  0  0  0
   16.4441   41.8987   -8.4933 C   0  0  0  0  0  0
   19.6653   43.7348   -6.6579 C   0  0  2  0  0  0
   19.2618   42.3897   -6.8400 O   0  0  0  0  0  0
   20.3627   43.8729   -5.2660 C   0  0  0  0  0  0
   20.8349   42.5968   -4.7081 N   0  0  0  0  0  0
   22.2134   42.2160   -4.9999 C   0  0  0  0  0  0
   22.8504   41.2317   -4.0415 C   0  0  0  0  0  0
   23.2886   42.6789   -4.0468 C   0  0  0  0  0  0
   22.4692   42.0582   -6.4689 C   0  0  0  0  0  0
   21.8828   40.9841   -7.1688 C   0  0  0  0  0  0
   22.0016   40.8606   -8.5721 C   0  0  0  0  0  0
   22.8037   41.8036   -9.2615 C   0  0  0  0  0  0
   23.4357   42.8509   -8.5650 C   0  0  0  0  0  0
   23.2582   42.9875   -7.1761 C   0  0  0  0  0  0
   21.2511   39.7246   -9.2899 C   0  0  0  0  0  0
   21.7730   38.3690   -8.7692 C   0  0  0  0  0  0
   19.7385   39.8276   -8.9993 C   0  0  0  0  0  0
   21.4146   39.7826  -10.8239 C   0  0  0  0  0  0
   18.2028   45.0456   -5.8448 H   0  0  0  0  0  0
   20.3962   43.9299   -7.4427 H   0  0  0  0  0  0
   22.5213   51.5573  -11.2774 H   0  0  0  0  0  0
   20.8096   51.5259  -11.6821 H   0  0  0  0  0  0
   21.5329   50.2253  -10.7202 H   0  0  0  0  0  0
   21.9766   53.8260  -10.5630 H   0  0  0  0  0  0
   22.9556   53.1845   -9.2419 H   0  0  0  0  0  0
   21.4440   54.0482   -8.9124 H   0  0  0  0  0  0
   18.7097   51.2129  -10.7286 H   0  0  0  0  0  0
   17.1911   47.3654   -9.5177 H   0  0  0  0  0  0
   20.1173   49.3933   -7.0889 H   0  0  0  0  0  0
   18.8732   45.7540   -8.6221 H   0  0  0  0  0  0
   16.8600   43.3216   -6.4413 H   0  0  0  0  0  0
   16.2962   44.7457   -7.2734 H   0  0  0  0  0  0
   17.8916   44.6765   -9.8074 H   0  0  0  0  0  0
   18.4714   44.8337  -13.4304 H   0  0  0  0  0  0
   19.0561   44.7864  -11.7836 H   0  0  0  0  0  0
   16.3834   45.5682  -11.3787 H   0  0  0  0  0  0
   18.1080   47.3956  -13.0993 H   0  0  0  0  0  0
   15.6838   47.7844  -11.2104 H   0  0  0  0  0  0
   15.7612   48.5041  -12.8035 H   0  0  0  0  0  0
   17.2780   50.0777  -12.1018 H   0  0  0  0  0  0
   15.8414   40.1581   -9.6154 H   0  0  0  0  0  0
   16.1062   41.4885   -7.5511 H   0  0  0  0  0  0
   18.6108   42.1501   -6.1846 H   0  0  0  0  0  0
   19.6600   44.2793   -4.5427 H   0  0  0  0  0  0
   21.1701   44.6052   -5.3096 H   0  0  0  0  0  0
   20.2257   41.8637   -5.0668 H   0  0  0  0  0  0
   22.2739   40.9001   -3.1786 H   0  0  0  0  0  0
   23.5528   40.5010   -4.4379 H   0  0  0  0  0  0
   24.2800   42.8928   -4.4413 H   0  0  0  0  0  0
   22.9896   43.2789   -3.1896 H   0  0  0  0  0  0
   21.2812   40.2790   -6.6153 H   0  0  0  0  0  0
   22.9485   41.7531  -10.3296 H   0  0  0  0  0  0
   24.0418   43.5648   -9.1024 H   0  0  0  0  0  0
   23.7167   43.8156   -6.6572 H   0  0  0  0  0  0
   22.8564   38.2997   -8.8537 H   0  0  0  0  0  0
   21.3381   37.5325   -9.3163 H   0  0  0  0  0  0
   21.5303   38.2195   -7.7173 H   0  0  0  0  0  0
   19.3420   40.7934   -9.3175 H   0  0  0  0  0  0
   19.5092   39.7174   -7.9393 H   0  0  0  0  0  0
   19.1779   39.0555   -9.5270 H   0  0  0  0  0  0
   20.9904   40.6987  -11.2355 H   0  0  0  0  0  0
   20.9090   38.9504  -11.3108 H   0  0  0  0  0  0
   22.4600   39.7442  -11.1233 H   0  0  0  0  0  0
  1  2  1  0  0  0
  1 49  1  0  0  0
  1 50  1  0  0  0
  1 51  1  0  0  0
  2  3  1  0  0  0
  2  4  1  0  0  0
  3 52  1  0  0  0
  3 53  1  0  0  0
  3 54  1  0  0  0
  4  5  2  0  0  0
  4  6  1  0  0  0
  6 11  1  0  0  0
  6  7  2  0  0  0
  7  8  1  0  0  0
  7 55  1  0  0  0
  8 25  1  0  0  0
  8  9  2  0  0  0
  9 10  1  0  0  0
  9 56  1  0  0  0
 10 11  2  0  0  0
 10 12  1  0  0  0
 11 57  1  0  0  0
 12 13  2  0  0  0
 12 14  1  0  0  0
 14 15  1  0  0  0
 14 58  1  0  0  0
 15 47  1  0  0  0
 15 16  1  0  0  0
 15 30  1  0  0  0
 16 17  1  0  0  0
 16 59  1  0  0  0
 16 60  1  0  0  0
 17 29  1  0  0  0
 17 18  2  0  0  0
 18 19  1  0  0  0
 18 61  1  0  0  0
 19 20  1  0  0  0
 19 26  2  0  0  0
 20 21  1  0  0  0
 21 22  1  0  0  0
 21 62  1  0  0  0
 21 63  1  0  0  0
 22 23  2  0  0  0
 22 64  1  0  0  0
 23 24  1  0  0  0
 23 65  1  0  0  0
 24 25  1  0  0  0
 24 66  1  0  0  0
 24 67  1  0  0  0
 25 68  1  0  0  0
 26 27  1  0  0  0
 26 28  1  0  0  0
 28 29  2  0  0  0
 28 69  1  0  0  0
 29 70  1  0  0  0
 30 48  1  0  0  0
 30 31  1  0  0  0
 30 32  1  0  0  0
 31 71  1  0  0  0
 32 33  1  0  0  0
 32 72  1  0  0  0
 32 73  1  0  0  0
 33 34  1  0  0  0
 33 74  1  0  0  0
 34 36  1  0  0  0
 34 35  1  0  0  0
 34 37  1  0  0  0
 35 36  1  0  0  0
 35 75  1  0  0  0
 35 76  1  0  0  0
 36 77  1  0  0  0
 36 78  1  0  0  0
 37 42  1  0  0  0
 37 38  2  0  0  0
 38 39  1  0  0  0
 38 79  1  0  0  0
 39 40  2  0  0  0
 39 43  1  0  0  0
 40 41  1  0  0  0
 40 80  1  0  0  0
 41 42  2  0  0  0
 41 81  1  0  0  0
 42 82  1  0  0  0
 43 44  1  0  0  0
 43 45  1  0  0  0
 43 46  1  0  0  0
 44 83  1  0  0  0
 44 84  1  0  0  0
 44 85  1  0  0  0
 45 86  1  0  0  0
 45 87  1  0  0  0
 45 88  1  0  0  0
 46 89  1  0  0  0
 46 90  1  0  0  0
 46 91  1  0  0  0
M  END
> <s_m_source_file>
BACE_131.smi

> <i_m_source_file_index>
1

> <i_lp_mmshare_version>
42013

> <i_f3d_flags>
0

> <s_epik_input>
W2NIXTFbY0hdW2NIXWMoQyhbQ0gzXSkoW0NIM10pW0NIM10pW2NIXWMxQzIoW0NIMl1bQ0gyXTIpW05IXVtDSDJdW0NAQEhdKFtPSF0pW0NAQEhdKFtOSF1DKD1PKWMoW2NIXTMpW2NIXWMoW2NIXWMzNClDKD1PKU4oW0NIM10pW0NIM10pW0NIMl1jNVtjSF1jKGMoRilbY0hdW2NIXTUpT1tDSDJdL1tDSF09W0NIXS9bQ0gyXVtOSF00

> <s_epik_cmdline>
J2VwaWtfcHl0aG9uJywgJy1waCcsICc3LjAnLCAnLXRuJywgJzgnLCAnLW1hJywgJzIwMCcsICctaW1hZScsICc8aW5maWxlLm1hZT4nLCAnLW9tYWUnLCAnPG91dGZpbGUubWFlPic=

> <r_lp_tautomer_probability>
1

> <r_epik_Ionization_Penalty>
  0.3253

> <r_epik_Ionization_Penalty_Charging>
  0.0000

> <r_epik_Ionization_Penalty_Neutral>
  0.3253

> <r_epik_State_Penalty>
  0.3200

> <r_epik_Charging_Adjusted_Penalty>
0.320028

> <i_epik_Tot_Q>
0

> <i_epik_Tot_abs_Q>
0

> <s_lp_Force_Field>
OPLS_2005

> <r_lp_Energy>
59.8068

> <b_lp_Chiralities_Consistent>
1

> <s_lp_Variant>
BACE_131.smi:1-1

> <chiral flag>
1

> <version>
0

> <s_i_glide_gridfile>
second_dock_grid_2

> <i_i_glide_lignum>
65

> <i_i_glide_rotatable_bonds>
9

> <r_i_docking_score>
-4.45909

> <r_i_glide_ligand_efficiency>
-0.0969368

> <r_i_glide_ligand_efficiency_sa>
-0.347329

> <r_i_glide_ligand_efficiency_ln>
-0.923467

> <r_glide_XP_GScore>
-4.77909

> <r_i_glide_gscore>
-4.77909

> <r_i_glide_evdw>
-39.9653

> <r_i_glide_ecoul>
-12.4983

> <r_i_glide_energy>
-52.4636

> <r_i_glide_einternal>
8.78881

> <r_i_glide_emodel>
-71.7368

> <r_glide_XP_HBond>
-0.966462

> <i_i_glide_confnum>
1

> <i_i_glide_posenum>
1

> <r_i_glide_eff_state_penalty>
0.32

> <i_glide_XP_PoseRank>
1

$$$$
BACE_131.smi:1
                    3D
 Structure written by MMmdl.
 92 96  0  0  1  0            999 V2000
   14.1559   38.9383   -9.2196 C   0  0  0  0  0  0
   14.8311   40.2295   -9.3844 N   0  0  0  0  0  0
   15.1803   40.9007   -8.1263 C   0  0  0  0  0  0
   15.0019   40.7660  -10.6202 C   0  0  0  0  0  0
   14.4567   40.3092  -11.6268 O   0  0  0  0  0  0
   15.8998   41.9647  -10.7767 C   0  0  0  0  0  0
   15.3996   43.2750  -10.6120 C   0  0  0  0  0  0
   16.2472   44.3968  -10.7229 C   0  0  0  0  0  0
   17.6248   44.1956  -10.9949 C   0  0  0  0  0  0
   18.1511   42.8865  -11.1237 C   0  0  0  0  0  0
   17.2779   41.7804  -11.0168 C   0  0  0  0  0  0
   19.6086   42.6486  -11.4185 C   0  0  0  0  0  0
   19.9416   41.7450  -12.1874 O   0  0  0  0  0  0
   20.4871   43.4234  -10.7491 N   0  0  0  0  0  0
   21.9548   43.3303  -10.8064 C   0  0  1  0  0  0
   22.6251   44.7179  -11.0422 C   0  0  0  0  0  0
   22.7111   45.7130   -9.8830 C   0  0  0  0  0  0
   21.5449   46.2258   -9.2738 C   0  0  0  0  0  0
   21.6168   47.2202   -8.2629 C   0  0  0  0  0  0
   20.5172   47.7878   -7.6451 O   0  0  0  0  0  0
   19.2865   47.0678   -7.6134 C   0  0  0  0  0  0
   18.4758   47.2127   -8.8879 C   0  0  0  0  0  0
   17.1848   46.8674   -9.0072 C   0  0  0  0  0  0
   16.4330   46.8750  -10.3235 C   0  0  0  0  0  0
   15.6568   45.6623  -10.5514 N   0  0  0  0  0  0
   22.8871   47.6936   -7.8722 C   0  0  0  0  0  0
   22.9867   48.6503   -6.9182 F   0  0  0  0  0  0
   24.0570   47.1768   -8.4604 C   0  0  0  0  0  0
   23.9703   46.1930   -9.4628 C   0  0  0  0  0  0
   22.5079   42.4288   -9.6623 C   0  0  2  0  0  0
   23.3577   43.1540   -8.7938 O   0  0  0  0  0  0
   23.2687   41.1855  -10.1715 C   0  0  0  0  0  0
   23.4612   40.1908   -9.0912 N   0  3  0  0  0  0
   22.2542   39.8157   -8.3386 C   0  0  0  0  0  0
   21.0055   39.5055   -9.1289 C   0  0  0  0  0  0
   21.7707   38.3901   -8.4576 C   0  0  0  0  0  0
   22.0836   40.5080   -6.9939 C   0  0  0  0  0  0
   21.9319   41.9114   -6.9132 C   0  0  0  0  0  0
   21.7775   42.5737   -5.6662 C   0  0  0  0  0  0
   21.7786   41.7801   -4.4925 C   0  0  0  0  0  0
   21.9275   40.3827   -4.5602 C   0  0  0  0  0  0
   22.0796   39.7494   -5.8056 C   0  0  0  0  0  0
   21.6121   44.1081   -5.5520 C   0  0  0  0  0  0
   22.6876   44.6818   -4.6003 C   0  0  0  0  0  0
   21.7675   44.7566   -6.9473 C   0  0  0  0  0  0
   20.2309   44.5369   -4.9968 C   0  0  0  0  0  0
   22.1839   42.7917  -11.7272 H   0  0  0  0  0  0
   21.6623   42.0811   -9.0667 H   0  0  0  0  0  0
   14.3701   38.4881   -8.2494 H   0  0  0  0  0  0
   14.4753   38.2140   -9.9709 H   0  0  0  0  0  0
   13.0748   39.0605   -9.2996 H   0  0  0  0  0  0
   14.5459   40.5660   -7.3043 H   0  0  0  0  0  0
   15.0520   41.9824   -8.1815 H   0  0  0  0  0  0
   16.2132   40.6861   -7.8503 H   0  0  0  0  0  0
   14.3522   43.4264  -10.3905 H   0  0  0  0  0  0
   18.2853   45.0422  -11.1074 H   0  0  0  0  0  0
   17.6662   40.7765  -11.1200 H   0  0  0  0  0  0
   20.1090   44.1245  -10.1281 H   0  0  0  0  0  0
   23.6342   44.5494  -11.4204 H   0  0  0  0  0  0
   22.1099   45.2223  -11.8611 H   0  0  0  0  0  0
   20.5950   45.8580   -9.6205 H   0  0  0  0  0  0
   18.6936   47.4455   -6.7798 H   0  0  0  0  0  0
   19.4632   46.0114   -7.4038 H   0  0  0  0  0  0
   19.0096   47.5430   -9.7669 H   0  0  0  0  0  0
   16.6393   46.5210   -8.1410 H   0  0  0  0  0  0
   15.7346   47.7118  -10.3041 H   0  0  0  0  0  0
   17.1096   47.0570  -11.1592 H   0  0  0  0  0  0
   14.6941   45.6822  -10.2465 H   0  0  0  0  0  0
   25.0240   47.5450   -8.1505 H   0  0  0  0  0  0
   24.8782   45.8255   -9.9184 H   0  0  0  0  0  0
   23.6068   42.5897   -8.0779 H   0  0  0  0  0  0
   24.2326   41.4724  -10.5925 H   0  0  0  0  0  0
   22.6993   40.7094  -10.9708 H   0  0  0  0  0  0
   24.1258   40.5741   -8.4344 H   0  0  0  0  0  0
   20.0484   39.7938   -8.6943 H   0  0  0  0  0  0
   21.0649   39.5759  -10.2150 H   0  0  0  0  0  0
   22.3418   37.7149   -9.0948 H   0  0  0  0  0  0
   21.3252   37.9328   -7.5741 H   0  0  0  0  0  0
   21.9372   42.4615   -7.8409 H   0  0  0  0  0  0
   21.6649   42.2330   -3.5190 H   0  0  0  0  0  0
   21.9254   39.7956   -3.6536 H   0  0  0  0  0  0
   22.1933   38.6757   -5.8448 H   0  0  0  0  0  0
   22.6163   44.2369   -3.6068 H   0  0  0  0  0  0
   22.5801   45.7606   -4.4792 H   0  0  0  0  0  0
   23.7011   44.5084   -4.9621 H   0  0  0  0  0  0
   21.0308   44.3660   -7.6506 H   0  0  0  0  0  0
   22.7530   44.5847   -7.3802 H   0  0  0  0  0  0
   21.6303   45.8379   -6.9034 H   0  0  0  0  0  0
   19.4118   44.2040   -5.6358 H   0  0  0  0  0  0
   20.1494   45.6227   -4.9295 H   0  0  0  0  0  0
   20.0562   44.1504   -3.9917 H   0  0  0  0  0  0
   23.8591   39.3546   -9.4943 H   0  0  0  0  0  0
  1  2  1  0  0  0
  1 49  1  0  0  0
  1 50  1  0  0  0
  1 51  1  0  0  0
  2  3  1  0  0  0
  2  4  1  0  0  0
  3 52  1  0  0  0
  3 53  1  0  0  0
  3 54  1  0  0  0
  4  5  2  0  0  0
  4  6  1  0  0  0
  6 11  1  0  0  0
  6  7  2  0  0  0
  7  8  1  0  0  0
  7 55  1  0  0  0
  8 25  1  0  0  0
  8  9  2  0  0  0
  9 10  1  0  0  0
  9 56  1  0  0  0
 10 11  2  0  0  0
 10 12  1  0  0  0
 11 57  1  0  0  0
 12 13  2  0  0  0
 12 14  1  0  0  0
 14 15  1  0  0  0
 14 58  1  0  0  0
 15 47  1  0  0  0
 15 16  1  0  0  0
 15 30  1  0  0  0
 16 17  1  0  0  0
 16 59  1  0  0  0
 16 60  1  0  0  0
 17 29  1  0  0  0
 17 18  2  0  0  0
 18 19  1  0  0  0
 18 61  1  0  0  0
 19 20  1  0  0  0
 19 26  2  0  0  0
 20 21  1  0  0  0
 21 22  1  0  0  0
 21 62  1  0  0  0
 21 63  1  0  0  0
 22 23  2  0  0  0
 22 64  1  0  0  0
 23 24  1  0  0  0
 23 65  1  0  0  0
 24 25  1  0  0  0
 24 66  1  0  0  0
 24 67  1  0  0  0
 25 68  1  0  0  0
 26 27  1  0  0  0
 26 28  1  0  0  0
 28 29  2  0  0  0
 28 69  1  0  0  0
 29 70  1  0  0  0
 30 48  1  0  0  0
 30 31  1  0  0  0
 30 32  1  0  0  0
 31 71  1  0  0  0
 32 33  1  0  0  0
 32 72  1  0  0  0
 32 73  1  0  0  0
 33 34  1  0  0  0
 33 74  1  0  0  0
 33 92  1  0  0  0
 34 36  1  0  0  0
 34 35  1  0  0  0
 34 37  1  0  0  0
 35 36  1  0  0  0
 35 75  1  0  0  0
 35 76  1  0  0  0
 36 77  1  0  0  0
 36 78  1  0  0  0
 37 42  1  0  0  0
 37 38  2  0  0  0
 38 39  1  0  0  0
 38 79  1  0  0  0
 39 40  2  0  0  0
 39 43  1  0  0  0
 40 41  1  0  0  0
 40 80  1  0  0  0
 41 42  2  0  0  0
 41 81  1  0  0  0
 42 82  1  0  0  0
 43 44  1  0  0  0
 43 45  1  0  0  0
 43 46  1  0  0  0
 44 83  1  0  0  0
 44 84  1  0  0  0
 44 85  1  0  0  0
 45 86  1  0  0  0
 45 87  1  0  0  0
 45 88  1  0  0  0
 46 89  1  0  0  0
 46 90  1  0  0  0
 46 91  1  0  0  0
M  CHG  1  33   1
M  END
> <s_m_source_file>
BACE_131.smi

> <i_m_source_file_index>
1

> <i_lp_mmshare_version>
42013

> <i_f3d_flags>
0

> <s_epik_input>
W2NIXTFbY0hdW2NIXWMoQyhbQ0gzXSkoW0NIM10pW0NIM10pW2NIXWMxQzIoW0NIMl1bQ0gyXTIpW05IXVtDSDJdW0NAQEhdKFtPSF0pW0NAQEhdKFtOSF1DKD1PKWMoW2NIXTMpW2NIXWMoW2NIXWMzNClDKD1PKU4oW0NIM10pW0NIM10pW0NIMl1jNVtjSF1jKGMoRilbY0hdW2NIXTUpT1tDSDJdL1tDSF09W0NIXS9bQ0gyXVtOSF00

> <s_epik_cmdline>
J2VwaWtfcHl0aG9uJywgJy1waCcsICc3LjAnLCAnLXRuJywgJzgnLCAnLW1hJywgJzIwMCcsICctaW1hZScsICc8aW5maWxlLm1hZT4nLCAnLW9tYWUnLCAnPG91dGZpbGUubWFlPic=

> <r_lp_tautomer_probability>
1

> <r_epik_Ionization_Penalty>
  0.5105

> <r_epik_Ionization_Penalty_Charging>
  0.5105

> <r_epik_Ionization_Penalty_Neutral>
  0.0000

> <r_epik_State_Penalty>
  0.5178

> <r_epik_Charging_Adjusted_Penalty>
1.02829

> <i_epik_Tot_Q>
1

> <i_epik_Tot_abs_Q>
1

> <s_lp_Force_Field>
OPLS_2005

> <r_lp_Energy>
53.0652

> <b_lp_Chiralities_Consistent>
1

> <s_lp_Variant>
BACE_131.smi:1-2

> <chiral flag>
1

> <version>
0

> <s_i_glide_gridfile>
second_dock_grid_2

> <i_i_glide_lignum>
66

> <i_i_glide_rotatable_bonds>
9

> <r_i_docking_score>
-4.89609

> <r_i_glide_ligand_efficiency>
-0.106437

> <r_i_glide_ligand_efficiency_sa>
-0.381368

> <r_i_glide_ligand_efficiency_ln>
-1.01397

> <r_glide_XP_GScore>
-5.41389

> <r_i_glide_gscore>
-5.41389

> <r_i_glide_evdw>
-41.0431

> <r_i_glide_ecoul>
-15.2686

> <r_i_glide_energy>
-56.3117

> <r_i_glide_einternal>
7.76653

> <r_i_glide_emodel>
-76.6805

> <r_glide_XP_HBond>
0

> <i_i_glide_confnum>
1

> <i_i_glide_posenum>
2

> <r_i_glide_eff_state_penalty>
0.5178

> <i_glide_XP_PoseRank>
1

$$$$
