BACE_145.smi:1
                    3D
 Structure written by MMmdl.
 89 92  0  0  1  0            999 V2000
   30.2577   41.7743  -13.9482 C   0  0  0  0  0  0
   29.3618   41.2281  -12.8305 C   0  0  0  0  0  0
   28.2962   42.2377  -12.3807 C   0  0  0  0  0  0
   27.4171   41.6683  -11.3695 N   0  0  0  0  0  0
   26.1454   42.2008  -11.1030 C   0  0  0  0  0  0
   25.6244   43.3310  -11.7769 C   0  0  0  0  0  0
   24.3364   43.8156  -11.4682 C   0  0  0  0  0  0
   23.7849   45.0240  -12.2027 C   0  0  0  0  0  0
   24.4885   45.2615  -13.4117 O   0  0  0  0  0  0
   24.0863   46.4567  -14.0601 C   0  0  0  0  0  0
   23.5647   43.1757  -10.4761 C   0  0  0  0  0  0
   24.0739   42.0521   -9.7839 C   0  0  0  0  0  0
   25.3607   41.5692  -10.1150 C   0  0  0  0  0  0
   23.2517   41.3451   -8.7404 C   0  0  0  0  0  0
   23.2556   41.7321   -7.5706 O   0  0  0  0  0  0
   22.4944   40.3259   -9.1892 N   0  0  0  0  0  0
   21.1286   39.9982   -8.7635 C   0  0  1  0  0  0
   20.4109   39.2543   -9.9220 C   0  0  0  0  0  0
   18.9473   38.9196   -9.6599 C   0  0  0  0  0  0
   17.9345   39.8589   -9.9543 C   0  0  0  0  0  0
   16.5757   39.5715   -9.7038 C   0  0  0  0  0  0
   16.2374   38.3140   -9.1414 C   0  0  0  0  0  0
   17.2433   37.3760   -8.8387 C   0  0  0  0  0  0
   18.5939   37.6769   -9.0941 C   0  0  0  0  0  0
   15.6625   40.5531  -10.0297 O   0  0  0  0  0  0
   14.2821   40.3031   -9.8025 C   0  0  0  0  0  0
   21.1509   39.1956   -7.4282 C   0  0  2  0  0  0
   19.8428   38.7107   -7.1904 O   0  0  0  0  0  0
   21.6312   39.9788   -6.1839 C   0  0  0  0  0  0
   20.7227   41.0872   -5.8715 N   0  0  0  0  0  0
   21.0823   42.0418   -4.8117 C   0  0  0  0  0  0
   21.9745   41.5473   -3.6984 C   0  0  0  0  0  0
   20.5104   41.8057   -3.4343 C   0  0  0  0  0  0
   21.2550   43.4844   -5.2654 C   0  0  0  0  0  0
   20.1606   44.2111   -5.7867 C   0  0  0  0  0  0
   20.3067   45.5553   -6.1995 C   0  0  0  0  0  0
   21.5702   46.1767   -6.0807 C   0  0  0  0  0  0
   22.6646   45.4648   -5.5551 C   0  0  0  0  0  0
   22.5067   44.1268   -5.1474 C   0  0  0  0  0  0
   19.1070   46.3151   -6.7629 C   0  0  0  0  0  0
   18.6854   47.4844   -5.8553 C   0  0  0  0  0  0
   19.3415   46.7715   -8.2138 C   0  0  0  0  0  0
   20.5790   40.9247   -8.5859 H   0  0  0  0  0  0
   21.7734   38.3106   -7.5589 H   0  0  0  0  0  0
   31.0020   41.0348  -14.2441 H   0  0  0  0  0  0
   30.7900   42.6698  -13.6263 H   0  0  0  0  0  0
   29.6743   42.0298  -14.8333 H   0  0  0  0  0  0
   29.9838   40.9474  -11.9795 H   0  0  0  0  0  0
   28.8783   40.3133  -13.1753 H   0  0  0  0  0  0
   27.7011   42.5494  -13.2400 H   0  0  0  0  0  0
   28.7814   43.1266  -11.9758 H   0  0  0  0  0  0
   27.7388   40.8652  -10.8484 H   0  0  0  0  0  0
   26.1981   43.8390  -12.5378 H   0  0  0  0  0  0
   22.7264   44.8595  -12.4115 H   0  0  0  0  0  0
   23.8458   45.9008  -11.5557 H   0  0  0  0  0  0
   24.6596   46.5835  -14.9784 H   0  0  0  0  0  0
   24.2654   47.3301  -13.4315 H   0  0  0  0  0  0
   23.0293   46.4279  -14.3278 H   0  0  0  0  0  0
   22.5762   43.5532  -10.2562 H   0  0  0  0  0  0
   25.7624   40.7063   -9.6021 H   0  0  0  0  0  0
   22.8990   39.7211   -9.8896 H   0  0  0  0  0  0
   20.4376   39.8662  -10.8249 H   0  0  0  0  0  0
   20.9526   38.3424  -10.1765 H   0  0  0  0  0  0
   18.1974   40.8164  -10.3804 H   0  0  0  0  0  0
   15.2149   38.0412   -8.9286 H   0  0  0  0  0  0
   16.9772   36.4222   -8.4072 H   0  0  0  0  0  0
   19.3558   36.9502   -8.8521 H   0  0  0  0  0  0
   13.7070   41.1752  -10.1135 H   0  0  0  0  0  0
   14.0712   40.1353   -8.7454 H   0  0  0  0  0  0
   13.9246   39.4535  -10.3860 H   0  0  0  0  0  0
   19.4887   39.1598   -6.4381 H   0  0  0  0  0  0
   22.6530   40.3310   -6.3280 H   0  0  0  0  0  0
   21.6479   39.2988   -5.3321 H   0  0  0  0  0  0
   19.7640   40.7703   -5.7679 H   0  0  0  0  0  0
   22.3046   40.5093   -3.7393 H   0  0  0  0  0  0
   22.6947   42.2498   -3.2789 H   0  0  0  0  0  0
   20.2517   42.6808   -2.8382 H   0  0  0  0  0  0
   19.8616   40.9404   -3.2986 H   0  0  0  0  0  0
   19.1980   43.7268   -5.8681 H   0  0  0  0  0  0
   21.7100   47.2027   -6.3880 H   0  0  0  0  0  0
   23.6270   45.9464   -5.4629 H   0  0  0  0  0  0
   23.3544   43.5943   -4.7412 H   0  0  0  0  0  0
   18.2635   45.6239   -6.7887 H   0  0  0  0  0  0
   17.7872   47.9715   -6.2364 H   0  0  0  0  0  0
   19.4624   48.2455   -5.7805 H   0  0  0  0  0  0
   18.4619   47.1367   -4.8461 H   0  0  0  0  0  0
   18.4509   47.2502   -8.6224 H   0  0  0  0  0  0
   19.5781   45.9240   -8.8582 H   0  0  0  0  0  0
   20.1607   47.4868   -8.2909 H   0  0  0  0  0  0
  1  2  1  0  0  0
  1 45  1  0  0  0
  1 46  1  0  0  0
  1 47  1  0  0  0
  2  3  1  0  0  0
  2 48  1  0  0  0
  2 49  1  0  0  0
  3  4  1  0  0  0
  3 50  1  0  0  0
  3 51  1  0  0  0
  4  5  1  0  0  0
  4 52  1  0  0  0
  5 13  1  0  0  0
  5  6  2  0  0  0
  6  7  1  0  0  0
  6 53  1  0  0  0
  7  8  1  0  0  0
  7 11  2  0  0  0
  8  9  1  0  0  0
  8 54  1  0  0  0
  8 55  1  0  0  0
  9 10  1  0  0  0
 10 56  1  0  0  0
 10 57  1  0  0  0
 10 58  1  0  0  0
 11 12  1  0  0  0
 11 59  1  0  0  0
 12 13  2  0  0  0
 12 14  1  0  0  0
 13 60  1  0  0  0
 14 15  2  0  0  0
 14 16  1  0  0  0
 16 17  1  0  0  0
 16 61  1  0  0  0
 17 43  1  0  0  0
 17 18  1  0  0  0
 17 27  1  0  0  0
 18 19  1  0  0  0
 18 62  1  0  0  0
 18 63  1  0  0  0
 19 24  1  0  0  0
 19 20  2  0  0  0
 20 21  1  0  0  0
 20 64  1  0  0  0
 21 22  2  0  0  0
 21 25  1  0  0  0
 22 23  1  0  0  0
 22 65  1  0  0  0
 23 24  2  0  0  0
 23 66  1  0  0  0
 24 67  1  0  0  0
 25 26  1  0  0  0
 26 68  1  0  0  0
 26 69  1  0  0  0
 26 70  1  0  0  0
 27 44  1  0  0  0
 27 28  1  0  0  0
 27 29  1  0  0  0
 28 71  1  0  0  0
 29 30  1  0  0  0
 29 72  1  0  0  0
 29 73  1  0  0  0
 30 31  1  0  0  0
 30 74  1  0  0  0
 31 33  1  0  0  0
 31 32  1  0  0  0
 31 34  1  0  0  0
 32 33  1  0  0  0
 32 75  1  0  0  0
 32 76  1  0  0  0
 33 77  1  0  0  0
 33 78  1  0  0  0
 34 39  1  0  0  0
 34 35  2  0  0  0
 35 36  1  0  0  0
 35 79  1  0  0  0
 36 37  2  0  0  0
 36 40  1  0  0  0
 37 38  1  0  0  0
 37 80  1  0  0  0
 38 39  2  0  0  0
 38 81  1  0  0  0
 39 82  1  0  0  0
 40 41  1  0  0  0
 40 42  1  0  0  0
 40 83  1  0  0  0
 41 84  1  0  0  0
 41 85  1  0  0  0
 41 86  1  0  0  0
 42 87  1  0  0  0
 42 88  1  0  0  0
 42 89  1  0  0  0
M  END
> <s_m_source_file>
BACE_145.smi

> <i_m_source_file_index>
1

> <i_lp_mmshare_version>
42013

> <i_f3d_flags>
0

> <s_epik_input>
W0NIM11bQ0gyXVtDSDJdW05IXWMxW2NIXWMoW0NIMl1PW0NIM10pW2NIXWMoW2NIXTEpQyg9TylbTkhdW0NAQEhdKFtDSDJdYzJbY0hdYyhPW0NIM10pW2NIXVtjSF1bY0hdMilbQ0BIXShbT0hdKVtDSDJdW05IXUMzKFtDSDJdW0NIMl0zKWM0W2NIXWMoW0NIXShbQ0gzXSlbQ0gzXSlbY0hdW2NIXVtjSF00

> <s_epik_cmdline>
J2VwaWtfcHl0aG9uJywgJy1waCcsICc3LjAnLCAnLXRuJywgJzgnLCAnLW1hJywgJzIwMCcsICctaW1hZScsICc8aW5maWxlLm1hZT4nLCAnLW9tYWUnLCAnPG91dGZpbGUubWFlPic=

> <r_lp_tautomer_probability>
1

> <r_epik_Ionization_Penalty>
  0.3235

> <r_epik_Ionization_Penalty_Charging>
  0.0000

> <r_epik_Ionization_Penalty_Neutral>
  0.3235

> <r_epik_State_Penalty>
  0.3176

> <r_epik_Charging_Adjusted_Penalty>
0.317604

> <i_epik_Tot_Q>
0

> <i_epik_Tot_abs_Q>
0

> <s_lp_Force_Field>
OPLS_2005

> <r_lp_Energy>
51.3819

> <b_lp_Chiralities_Consistent>
1

> <s_lp_Variant>
BACE_145.smi:1-1

> <chiral flag>
1

> <version>
0

> <s_i_glide_gridfile>
second_dock_grid_2

> <i_i_glide_lignum>
69

> <i_i_glide_rotatable_bonds>
18

> <r_i_docking_score>
-4.56818

> <r_i_glide_ligand_efficiency>
-0.108766

> <r_i_glide_ligand_efficiency_sa>
-0.378074

> <r_i_glide_ligand_efficiency_ln>
-0.964225

> <r_glide_XP_GScore>
-4.88578

> <r_i_glide_gscore>
-4.88578

> <r_i_glide_evdw>
-52.7213

> <r_i_glide_ecoul>
-5.70924

> <r_i_glide_energy>
-58.4305

> <r_i_glide_einternal>
13.3895

> <r_i_glide_emodel>
-83.5007

> <r_glide_XP_HBond>
-0.45565

> <i_i_glide_confnum>
1

> <i_i_glide_posenum>
28

> <r_i_glide_eff_state_penalty>
0.3176

> <i_glide_XP_PoseRank>
1

$$$$
BACE_145.smi:1
                    3D
 Structure written by MMmdl.
 90 93  0  0  1  0            999 V2000
   20.9723   43.7371    0.0966 C   0  0  0  0  0  0
   21.3783   43.0256   -1.1973 C   0  0  0  0  0  0
   20.3361   42.0103   -1.6876 C   0  0  0  0  0  0
   20.8457   41.2043   -2.7904 N   0  0  0  0  0  0
   20.7830   41.6552   -4.1155 C   0  0  0  0  0  0
   20.4730   42.9927   -4.4546 C   0  0  0  0  0  0
   20.4199   43.3878   -5.8025 C   0  0  0  0  0  0
   20.2036   44.8489   -6.1551 C   0  0  0  0  0  0
   18.8536   45.2729   -6.0436 O   0  0  0  0  0  0
   18.0002   44.6502   -6.9973 C   0  0  0  0  0  0
   20.5972   42.4314   -6.8202 C   0  0  0  0  0  0
   20.9175   41.0919   -6.5047 C   0  0  0  0  0  0
   21.0248   40.7204   -5.1457 C   0  0  0  0  0  0
   21.2280   40.0901   -7.5825 C   0  0  0  0  0  0
   22.0049   39.1580   -7.3716 O   0  0  0  0  0  0
   20.6009   40.2687   -8.7587 N   0  0  0  0  0  0
   20.7255   39.3906   -9.9306 C   0  0  1  0  0  0
   19.6017   38.3200   -9.9497 C   0  0  0  0  0  0
   18.2497   38.7958   -9.4317 C   0  0  0  0  0  0
   17.3729   39.5113  -10.2726 C   0  0  0  0  0  0
   16.1166   39.9551   -9.8090 C   0  0  0  0  0  0
   15.7423   39.6683   -8.4712 C   0  0  0  0  0  0
   16.6122   38.9500   -7.6304 C   0  0  0  0  0  0
   17.8619   38.5135   -8.1054 C   0  0  0  0  0  0
   15.3269   40.6498  -10.7019 O   0  0  0  0  0  0
   14.0641   41.1067  -10.2406 C   0  0  0  0  0  0
   20.8118   40.2022  -11.2571 C   0  0  2  0  0  0
   21.2599   39.3558  -12.2976 O   0  0  0  0  0  0
   21.7314   41.4467  -11.2275 C   0  0  0  0  0  0
   23.1196   41.1033  -10.8400 N   0  3  0  0  0  0
   23.9572   42.1818  -10.2559 C   0  0  0  0  0  0
   23.3547   43.0124   -9.1404 C   0  0  0  0  0  0
   24.2909   41.8819   -8.8115 C   0  0  0  0  0  0
   25.0121   42.7282  -11.1631 C   0  0  0  0  0  0
   26.3279   42.2224  -11.1056 C   0  0  0  0  0  0
   27.3539   42.7878  -11.8904 C   0  0  0  0  0  0
   27.0427   43.8476  -12.7712 C   0  0  0  0  0  0
   25.7304   44.3518  -12.8402 C   0  0  0  0  0  0
   24.7174   43.7931  -12.0391 C   0  0  0  0  0  0
   28.7734   42.2445  -11.7786 C   0  0  0  0  0  0
   29.0767   41.2741  -12.9214 C   0  0  0  0  0  0
   29.8339   43.3536  -11.6763 C   0  0  0  0  0  0
   21.6717   38.8475   -9.8572 H   0  0  0  0  0  0
   19.8099   40.5402  -11.5241 H   0  0  0  0  0  0
   21.7512   44.4277    0.4191 H   0  0  0  0  0  0
   20.8025   43.0241    0.9033 H   0  0  0  0  0  0
   20.0596   44.3119   -0.0400 H   0  0  0  0  0  0
   22.3352   42.5502   -1.0519 H   0  0  0  0  0  0
   21.5840   43.7500   -1.9747 H   0  0  0  0  0  0
   19.4106   42.5103   -1.9779 H   0  0  0  0  0  0
   20.0595   41.3331   -0.8776 H   0  0  0  0  0  0
   20.9381   40.2105   -2.6373 H   0  0  0  0  0  0
   20.2924   43.7434   -3.7021 H   0  0  0  0  0  0
   20.8018   45.4559   -5.4753 H   0  0  0  0  0  0
   20.5826   45.0558   -7.1576 H   0  0  0  0  0  0
   16.9884   45.0457   -6.9200 H   0  0  0  0  0  0
   17.9293   43.5707   -6.8397 H   0  0  0  0  0  0
   18.3468   44.8301   -8.0178 H   0  0  0  0  0  0
   20.4942   42.7494   -7.8452 H   0  0  0  0  0  0
   21.2760   39.7005   -4.8913 H   0  0  0  0  0  0
   19.8973   40.9911   -8.7968 H   0  0  0  0  0  0
   19.4783   37.8972  -10.9483 H   0  0  0  0  0  0
   19.9146   37.4835   -9.3232 H   0  0  0  0  0  0
   17.6529   39.7127  -11.2951 H   0  0  0  0  0  0
   14.7931   39.9788   -8.0609 H   0  0  0  0  0  0
   16.3147   38.7245   -6.6133 H   0  0  0  0  0  0
   18.5145   37.9586   -7.4440 H   0  0  0  0  0  0
   13.5436   41.6168  -11.0516 H   0  0  0  0  0  0
   14.1760   41.8166   -9.4200 H   0  0  0  0  0  0
   13.4380   40.2762   -9.9123 H   0  0  0  0  0  0
   21.0621   39.7495  -13.1347 H   0  0  0  0  0  0
   21.2876   42.1783  -10.5576 H   0  0  0  0  0  0
   21.7607   41.9289  -12.2057 H   0  0  0  0  0  0
   23.5849   40.7822  -11.6928 H   0  0  0  0  0  0
   23.7361   44.0223   -9.0000 H   0  0  0  0  0  0
   22.3302   42.8683   -8.8375 H   0  0  0  0  0  0
   23.8666   40.9977   -8.3410 H   0  0  0  0  0  0
   25.2600   42.1841   -8.4395 H   0  0  0  0  0  0
   26.5605   41.4057  -10.4368 H   0  0  0  0  0  0
   27.8069   44.2842  -13.3969 H   0  0  0  0  0  0
   25.5026   45.1707  -13.5063 H   0  0  0  0  0  0
   23.7157   44.1939  -12.0899 H   0  0  0  0  0  0
   28.8314   41.6749  -10.8487 H   0  0  0  0  0  0
   30.1184   40.9566  -12.9019 H   0  0  0  0  0  0
   28.8943   41.7252  -13.8957 H   0  0  0  0  0  0
   28.4604   40.3799  -12.8405 H   0  0  0  0  0  0
   30.8209   42.9275  -11.4991 H   0  0  0  0  0  0
   29.6169   44.0271  -10.8476 H   0  0  0  0  0  0
   29.8972   43.9482  -12.5862 H   0  0  0  0  0  0
   23.0981   40.3353  -10.1844 H   0  0  0  0  0  0
  1  2  1  0  0  0
  1 45  1  0  0  0
  1 46  1  0  0  0
  1 47  1  0  0  0
  2  3  1  0  0  0
  2 48  1  0  0  0
  2 49  1  0  0  0
  3  4  1  0  0  0
  3 50  1  0  0  0
  3 51  1  0  0  0
  4  5  1  0  0  0
  4 52  1  0  0  0
  5 13  1  0  0  0
  5  6  2  0  0  0
  6  7  1  0  0  0
  6 53  1  0  0  0
  7  8  1  0  0  0
  7 11  2  0  0  0
  8  9  1  0  0  0
  8 54  1  0  0  0
  8 55  1  0  0  0
  9 10  1  0  0  0
 10 56  1  0  0  0
 10 57  1  0  0  0
 10 58  1  0  0  0
 11 12  1  0  0  0
 11 59  1  0  0  0
 12 13  2  0  0  0
 12 14  1  0  0  0
 13 60  1  0  0  0
 14 15  2  0  0  0
 14 16  1  0  0  0
 16 17  1  0  0  0
 16 61  1  0  0  0
 17 43  1  0  0  0
 17 18  1  0  0  0
 17 27  1  0  0  0
 18 19  1  0  0  0
 18 62  1  0  0  0
 18 63  1  0  0  0
 19 24  1  0  0  0
 19 20  2  0  0  0
 20 21  1  0  0  0
 20 64  1  0  0  0
 21 22  2  0  0  0
 21 25  1  0  0  0
 22 23  1  0  0  0
 22 65  1  0  0  0
 23 24  2  0  0  0
 23 66  1  0  0  0
 24 67  1  0  0  0
 25 26  1  0  0  0
 26 68  1  0  0  0
 26 69  1  0  0  0
 26 70  1  0  0  0
 27 44  1  0  0  0
 27 28  1  0  0  0
 27 29  1  0  0  0
 28 71  1  0  0  0
 29 30  1  0  0  0
 29 72  1  0  0  0
 29 73  1  0  0  0
 30 31  1  0  0  0
 30 74  1  0  0  0
 30 90  1  0  0  0
 31 33  1  0  0  0
 31 32  1  0  0  0
 31 34  1  0  0  0
 32 33  1  0  0  0
 32 75  1  0  0  0
 32 76  1  0  0  0
 33 77  1  0  0  0
 33 78  1  0  0  0
 34 39  1  0  0  0
 34 35  2  0  0  0
 35 36  1  0  0  0
 35 79  1  0  0  0
 36 37  2  0  0  0
 36 40  1  0  0  0
 37 38  1  0  0  0
 37 80  1  0  0  0
 38 39  2  0  0  0
 38 81  1  0  0  0
 39 82  1  0  0  0
 40 41  1  0  0  0
 40 42  1  0  0  0
 40 83  1  0  0  0
 41 84  1  0  0  0
 41 85  1  0  0  0
 41 86  1  0  0  0
 42 87  1  0  0  0
 42 88  1  0  0  0
 42 89  1  0  0  0
M  CHG  1  30   1
M  END
> <s_m_source_file>
BACE_145.smi

> <i_m_source_file_index>
1

> <i_lp_mmshare_version>
42013

> <i_f3d_flags>
0

> <s_epik_input>
W0NIM11bQ0gyXVtDSDJdW05IXWMxW2NIXWMoW0NIMl1PW0NIM10pW2NIXWMoW2NIXTEpQyg9TylbTkhdW0NAQEhdKFtDSDJdYzJbY0hdYyhPW0NIM10pW2NIXVtjSF1bY0hdMilbQ0BIXShbT0hdKVtDSDJdW05IXUMzKFtDSDJdW0NIMl0zKWM0W2NIXWMoW0NIXShbQ0gzXSlbQ0gzXSlbY0hdW2NIXVtjSF00

> <s_epik_cmdline>
J2VwaWtfcHl0aG9uJywgJy1waCcsICc3LjAnLCAnLXRuJywgJzgnLCAnLW1hJywgJzIwMCcsICctaW1hZScsICc8aW5maWxlLm1hZT4nLCAnLW9tYWUnLCAnPG91dGZpbGUubWFlPic=

> <r_lp_tautomer_probability>
1

> <r_epik_Ionization_Penalty>
  0.5142

> <r_epik_Ionization_Penalty_Charging>
  0.5137

> <r_epik_Ionization_Penalty_Neutral>
  0.0005

> <r_epik_State_Penalty>
  0.5212

> <r_epik_Charging_Adjusted_Penalty>
1.03485

> <i_epik_Tot_Q>
1

> <i_epik_Tot_abs_Q>
1

> <s_lp_Force_Field>
OPLS_2005

> <r_lp_Energy>
38.1654

> <b_lp_Chiralities_Consistent>
1

> <s_lp_Variant>
BACE_145.smi:1-2

> <chiral flag>
1

> <version>
0

> <s_i_glide_gridfile>
second_dock_grid_2

> <i_i_glide_lignum>
70

> <i_i_glide_rotatable_bonds>
18

> <r_i_docking_score>
-5.31235

> <r_i_glide_ligand_efficiency>
-0.126484

> <r_i_glide_ligand_efficiency_sa>
-0.439663

> <r_i_glide_ligand_efficiency_ln>
-1.1213

> <r_glide_XP_GScore>
-5.83355

> <r_i_glide_gscore>
-5.83355

> <r_i_glide_evdw>
-52.0574

> <r_i_glide_ecoul>
-10.609

> <r_i_glide_energy>
-62.6664

> <r_i_glide_einternal>
12.6101

> <r_i_glide_emodel>
-92.7679

> <r_glide_XP_HBond>
-0.7

> <i_i_glide_confnum>
1

> <i_i_glide_posenum>
14

> <r_i_glide_eff_state_penalty>
0.5212

> <i_glide_XP_PoseRank>
1

$$$$
