BACE_78.smi:1
                    3D
 Structure written by MMmdl.
 84 86  0  0  1  0            999 V2000
   17.1935   36.1305   -9.1770 C   0  0  0  0  0  0
   17.5957   37.6030   -8.9761 C   0  0  2  0  0  0
   16.3002   38.4019   -8.7127 C   0  0  0  0  0  0
   16.4827   39.8992   -8.4615 C   0  0  0  0  0  0
   15.1768   40.5708   -8.0207 C   0  0  0  0  0  0
   15.3447   42.0561   -7.6680 C   0  0  0  0  0  0
   15.8166   42.9735   -8.8070 C   0  0  0  0  0  0
   14.7900   43.1336   -9.9417 C   0  0  0  0  0  0
   15.2519   44.0649  -11.0766 C   0  0  0  0  0  0
   16.1108   43.3791  -11.9841 O   0  0  0  0  0  0
   17.4404   43.2472  -11.6650 C   0  0  0  0  0  0
   18.0595   42.0225  -11.9879 C   0  0  0  0  0  0
   19.4334   41.8284  -11.7505 C   0  0  0  0  0  0
   20.1976   42.8632  -11.1722 C   0  0  0  0  0  0
   19.5825   44.0793  -10.8240 C   0  0  0  0  0  0
   18.2104   44.2769  -11.0767 C   0  0  0  0  0  0
   20.0904   40.5606  -12.1944 C   0  0  0  0  0  0
   20.7330   40.5504  -13.2400 O   0  0  0  0  0  0
   19.9457   39.4505  -11.4558 N   0  0  0  0  0  0
   19.4140   39.2734  -10.0999 C   0  0  1  0  0  0
   18.4114   38.0902  -10.2040 C   0  0  0  0  0  0
   20.6164   39.0854   -9.1268 C   0  0  2  0  0  0
   20.1624   39.0670   -7.7875 O   0  0  0  0  0  0
   21.6003   40.2715   -9.2198 C   0  0  0  0  0  0
   22.8120   40.1041   -8.4268 N   0  0  0  0  0  0
   23.6160   41.3245   -8.4085 C   0  0  0  0  0  0
   23.0555   42.4444   -7.5375 C   0  0  0  0  0  0
   22.0679   42.2206   -6.5542 C   0  0  0  0  0  0
   21.6213   43.2979   -5.7647 C   0  0  0  0  0  0
   20.5762   43.0890   -4.6766 C   0  0  0  0  0  0
   21.1005   42.3954   -3.3860 C   0  0  0  0  0  0
   20.1316   42.6829   -2.2217 C   0  0  0  0  0  0
   22.4996   42.9251   -3.0072 C   0  0  0  0  0  0
   21.1628   40.8686   -3.5783 C   0  0  0  0  0  0
   22.1790   44.5700   -6.0040 C   0  0  0  0  0  0
   23.1176   44.8046   -6.9483 N   0  0  0  0  0  0
   23.5445   43.7580   -7.6876 C   0  0  0  0  0  0
   18.2081   37.6279   -8.0752 H   0  0  0  0  0  0
   18.8878   40.1751   -9.8016 H   0  0  0  0  0  0
   21.1289   38.1459   -9.3424 H   0  0  0  0  0  0
   16.5341   36.0233  -10.0399 H   0  0  0  0  0  0
   16.6643   35.7480   -8.3068 H   0  0  0  0  0  0
   18.0594   35.4928   -9.3356 H   0  0  0  0  0  0
   15.6065   38.2657   -9.5446 H   0  0  0  0  0  0
   15.8050   37.9678   -7.8413 H   0  0  0  0  0  0
   17.2531   40.0592   -7.7054 H   0  0  0  0  0  0
   16.8126   40.3730   -9.3827 H   0  0  0  0  0  0
   14.4131   40.4448   -8.7906 H   0  0  0  0  0  0
   14.7921   40.0567   -7.1365 H   0  0  0  0  0  0
   14.3921   42.4173   -7.2851 H   0  0  0  0  0  0
   16.0604   42.1396   -6.8527 H   0  0  0  0  0  0
   16.0278   43.9560   -8.3855 H   0  0  0  0  0  0
   16.7694   42.6095   -9.1867 H   0  0  0  0  0  0
   14.5268   42.1623  -10.3605 H   0  0  0  0  0  0
   13.8717   43.5355   -9.5139 H   0  0  0  0  0  0
   14.3759   44.3583  -11.6569 H   0  0  0  0  0  0
   15.6637   44.9973  -10.6919 H   0  0  0  0  0  0
   17.4776   41.2343  -12.4397 H   0  0  0  0  0  0
   21.2574   42.7310  -11.0032 H   0  0  0  0  0  0
   20.1703   44.8719  -10.3848 H   0  0  0  0  0  0
   17.7764   45.2335  -10.8293 H   0  0  0  0  0  0
   20.3587   38.6231  -11.8599 H   0  0  0  0  0  0
   18.9635   37.2396  -10.6052 H   0  0  0  0  0  0
   17.6783   38.3541  -10.9651 H   0  0  0  0  0  0
   19.8386   39.9250   -7.5569 H   0  0  0  0  0  0
   21.9236   40.4189  -10.2486 H   0  0  0  0  0  0
   21.0770   41.1856   -8.9364 H   0  0  0  0  0  0
   23.3653   39.3347   -8.7972 H   0  0  0  0  0  0
   24.6037   41.0879   -8.0400 H   0  0  0  0  0  0
   23.7632   41.6950   -9.4241 H   0  0  0  0  0  0
   21.6555   41.2339   -6.4007 H   0  0  0  0  0  0
   20.1848   44.0715   -4.4170 H   0  0  0  0  0  0
   19.7268   42.5496   -5.0982 H   0  0  0  0  0  0
   20.4521   42.1922   -1.3024 H   0  0  0  0  0  0
   19.1249   42.3243   -2.4379 H   0  0  0  0  0  0
   20.0613   43.7500   -2.0093 H   0  0  0  0  0  0
   22.5177   44.0124   -2.9539 H   0  0  0  0  0  0
   23.2606   42.6222   -3.7258 H   0  0  0  0  0  0
   22.8175   42.5495   -2.0400 H   0  0  0  0  0  0
   21.4092   40.3696   -2.6432 H   0  0  0  0  0  0
   21.9244   40.5768   -4.3018 H   0  0  0  0  0  0
   20.2084   40.4670   -3.9199 H   0  0  0  0  0  0
   21.8664   45.4238   -5.4232 H   0  0  0  0  0  0
   24.3010   43.9829   -8.4240 H   0  0  0  0  0  0
  1  2  1  0  0  0
  1 41  1  0  0  0
  1 42  1  0  0  0
  1 43  1  0  0  0
  2 38  1  0  0  0
  2 21  1  0  0  0
  2  3  1  0  0  0
  3  4  1  0  0  0
  3 44  1  0  0  0
  3 45  1  0  0  0
  4  5  1  0  0  0
  4 46  1  0  0  0
  4 47  1  0  0  0
  5  6  1  0  0  0
  5 48  1  0  0  0
  5 49  1  0  0  0
  6  7  1  0  0  0
  6 50  1  0  0  0
  6 51  1  0  0  0
  7  8  1  0  0  0
  7 52  1  0  0  0
  7 53  1  0  0  0
  8  9  1  0  0  0
  8 54  1  0  0  0
  8 55  1  0  0  0
  9 10  1  0  0  0
  9 56  1  0  0  0
  9 57  1  0  0  0
 10 11  1  0  0  0
 11 16  1  0  0  0
 11 12  2  0  0  0
 12 13  1  0  0  0
 12 58  1  0  0  0
 13 14  2  0  0  0
 13 17  1  0  0  0
 14 15  1  0  0  0
 14 59  1  0  0  0
 15 16  2  0  0  0
 15 60  1  0  0  0
 16 61  1  0  0  0
 17 18  2  0  0  0
 17 19  1  0  0  0
 19 20  1  0  0  0
 19 62  1  0  0  0
 20 39  1  0  0  0
 20 21  1  0  0  0
 20 22  1  0  0  0
 21 63  1  0  0  0
 21 64  1  0  0  0
 22 40  1  0  0  0
 22 23  1  0  0  0
 22 24  1  0  0  0
 23 65  1  0  0  0
 24 25  1  0  0  0
 24 66  1  0  0  0
 24 67  1  0  0  0
 25 26  1  0  0  0
 25 68  1  0  0  0
 26 27  1  0  0  0
 26 69  1  0  0  0
 26 70  1  0  0  0
 27 37  1  0  0  0
 27 28  2  0  0  0
 28 29  1  0  0  0
 28 71  1  0  0  0
 29 30  1  0  0  0
 29 35  2  0  0  0
 30 31  1  0  0  0
 30 72  1  0  0  0
 30 73  1  0  0  0
 31 32  1  0  0  0
 31 33  1  0  0  0
 31 34  1  0  0  0
 32 74  1  0  0  0
 32 75  1  0  0  0
 32 76  1  0  0  0
 33 77  1  0  0  0
 33 78  1  0  0  0
 33 79  1  0  0  0
 34 80  1  0  0  0
 34 81  1  0  0  0
 34 82  1  0  0  0
 35 36  1  0  0  0
 35 83  1  0  0  0
 36 37  2  0  0  0
 37 84  1  0  0  0
M  END
> <s_m_source_file>
BACE_78.smi

> <i_m_source_file_index>
1

> <i_lp_mmshare_version>
42013

> <i_f3d_flags>
0

> <s_epik_input>
TzFbQ0gyXVtDSDJdW0NIMl1bQ0gyXVtDSDJdW0NIMl1bQ0gyXVtDQEBIXShbQ0gzXSlbQ0gyXVtDQEhdKFtOSF1DKD1PKWMoW2NIXWMxMilbY0hdW2NIXVtjSF0yKVtDQEhdKFtPSF0pW0NIMl1bTkhdW0NIMl1jM1tjSF1jKFtDSDJdQyhbQ0gzXSkoW0NIM10pW0NIM10pW2NIXW5bY0hdMw==

> <s_epik_cmdline>
J2VwaWtfcHl0aG9uJywgJy1waCcsICc3LjAnLCAnLXRuJywgJzgnLCAnLW1hJywgJzIwMCcsICctaW1hZScsICc8aW5maWxlLm1hZT4nLCAnLW9tYWUnLCAnPG91dGZpbGUubWFlPic=

> <r_lp_tautomer_probability>
1

> <r_epik_Ionization_Penalty>
  1.7209

> <r_epik_Ionization_Penalty_Charging>
  0.0000

> <r_epik_Ionization_Penalty_Neutral>
  1.7209

> <r_epik_State_Penalty>
  1.7908

> <r_epik_Charging_Adjusted_Penalty>
1.79078

> <i_epik_Tot_Q>
0

> <i_epik_Tot_abs_Q>
0

> <s_lp_Force_Field>
OPLS_2005

> <r_lp_Energy>
45.3465

> <b_lp_Chiralities_Consistent>
1

> <s_lp_Variant>
BACE_78.smi:1-2

> <chiral flag>
1

> <version>
0

> <s_i_glide_gridfile>
second_dock_grid_2

> <i_i_glide_lignum>
33

> <i_i_glide_rotatable_bonds>
8

> <r_i_docking_score>
-3.83638

> <r_i_glide_ligand_efficiency>
-0.103686

> <r_i_glide_ligand_efficiency_sa>
-0.345505

> <r_i_glide_ligand_efficiency_ln>
-0.832021

> <r_glide_XP_GScore>
-5.62718

> <r_i_glide_gscore>
-5.62718

> <r_i_glide_evdw>
-42.5088

> <r_i_glide_ecoul>
-7.56196

> <r_i_glide_energy>
-50.0708

> <r_i_glide_einternal>
5.72851

> <r_i_glide_emodel>
-66.8677

> <r_glide_XP_HBond>
-1.03266

> <i_i_glide_confnum>
1

> <i_i_glide_posenum>
2

> <r_i_glide_eff_state_penalty>
1.7908

> <i_glide_XP_PoseRank>
1

$$$$
BACE_81.smi:1
                    3D
 Structure written by MMmdl.
 91 95  0  0  1  0            999 V2000
   23.8706   44.2360  -11.1519 C   0  0  0  0  0  0
   23.0608   43.6005  -10.0006 C   0  0  2  0  0  0
   23.8500   43.5769   -8.6579 C   0  0  0  0  0  0
   24.3964   44.9229   -8.1160 C   0  0  0  0  0  0
   23.3532   45.9466   -7.6127 C   0  0  0  0  0  0
   22.9113   45.7628   -6.1403 C   0  0  0  0  0  0
   21.9215   46.8470   -5.6393 C   0  0  0  0  0  0
   20.4218   46.4677   -5.6403 C   0  0  0  0  0  0
   19.9157   45.9614   -6.9949 C   0  0  0  0  0  0
   18.5006   45.7788   -7.0247 O   0  0  0  0  0  0
   17.9687   45.0881   -8.1009 C   0  0  0  0  0  0
   16.5711   44.9038   -8.1514 C   0  0  0  0  0  0
   15.9643   44.1805   -9.2072 C   0  0  0  0  0  0
   16.7767   43.6089  -10.2163 C   0  0  0  0  0  0
   18.1784   43.7643  -10.1722 C   0  0  0  0  0  0
   18.7521   44.5385   -9.1440 C   0  0  0  0  0  0
   19.0755   43.1274  -11.1962 C   0  0  0  0  0  0
   18.7879   43.1194  -12.3934 O   0  0  0  0  0  0
   20.1860   42.5785  -10.6663 N   0  0  0  0  0  0
   21.3721   42.0560  -11.3455 C   0  0  1  0  0  0
   22.5963   42.1636  -10.3842 C   0  0  0  0  0  0
   21.1106   40.6231  -11.8985 C   0  0  2  0  0  0
   20.3686   40.6956  -13.1028 O   0  0  0  0  0  0
   20.3238   39.7322  -10.9120 C   0  0  0  0  0  0
   21.0530   39.5640   -9.6504 N   0  0  0  0  0  0
   20.3124   39.2054   -8.4311 C   0  0  0  0  0  0
   20.5265   40.0613   -7.2057 C   0  0  0  0  0  0
   21.1054   38.6679   -7.2639 C   0  0  0  0  0  0
   18.9193   38.6361   -8.6587 C   0  0  0  0  0  0
   17.7525   39.3951   -8.4096 C   0  0  0  0  0  0
   16.4763   38.8092   -8.6179 C   0  0  0  0  0  0
   16.4555   37.4657   -9.0672 C   0  0  0  0  0  0
   17.6720   36.7877   -9.2786 C   0  0  0  0  0  0
   18.8802   37.3517   -9.0777 N   0  0  0  0  0  0
   15.1518   39.5680   -8.3747 C   0  0  0  0  0  0
   14.0448   39.2021   -9.3941 C   0  0  0  0  0  0
   14.6105   39.2361   -6.9650 C   0  0  0  0  0  0
   15.3948   41.0911   -8.4821 C   0  0  0  0  0  0
   14.5099   44.0138   -9.2402 C   0  0  0  0  0  0
   13.5917   44.5480   -8.4323 N   0  0  0  0  0  0
   12.3723   44.0745   -8.8939 C   0  0  0  0  0  0
   12.6137   43.2665   -9.9727 C   0  0  0  0  0  0
   13.9618   43.2194  -10.2029 O   0  0  0  0  0  0
   22.1779   44.2171   -9.8424 H   0  0  0  0  0  0
   21.5520   42.7041  -12.2036 H   0  0  0  0  0  0
   22.0660   40.1430  -12.1146 H   0  0  0  0  0  0
   24.0818   45.2887  -10.9667 H   0  0  0  0  0  0
   23.3288   44.1990  -12.0962 H   0  0  0  0  0  0
   24.8228   43.7257  -11.3014 H   0  0  0  0  0  0
   23.2303   43.1250   -7.8826 H   0  0  0  0  0  0
   24.6989   42.9019   -8.7761 H   0  0  0  0  0  0
   25.0129   45.3958   -8.8794 H   0  0  0  0  0  0
   25.0938   44.7115   -7.3046 H   0  0  0  0  0  0
   22.4954   45.9663   -8.2816 H   0  0  0  0  0  0
   23.8036   46.9365   -7.6973 H   0  0  0  0  0  0
   23.8054   45.8168   -5.5178 H   0  0  0  0  0  0
   22.5053   44.7649   -5.9730 H   0  0  0  0  0  0
   22.0663   47.7703   -6.2016 H   0  0  0  0  0  0
   22.1871   47.0993   -4.6119 H   0  0  0  0  0  0
   19.8399   47.3402   -5.3412 H   0  0  0  0  0  0
   20.2357   45.7061   -4.8821 H   0  0  0  0  0  0
   20.4164   45.0093   -7.1673 H   0  0  0  0  0  0
   20.1978   46.6606   -7.7838 H   0  0  0  0  0  0
   15.9668   45.3274   -7.3623 H   0  0  0  0  0  0
   16.3330   43.0323  -11.0152 H   0  0  0  0  0  0
   19.8197   44.6826   -9.1705 H   0  0  0  0  0  0
   20.2618   42.6237   -9.6602 H   0  0  0  0  0  0
   23.4489   41.6287  -10.8038 H   0  0  0  0  0  0
   22.3480   41.6250   -9.4685 H   0  0  0  0  0  0
   20.0278   39.8359  -13.2972 H   0  0  0  0  0  0
   20.1184   38.7642  -11.3707 H   0  0  0  0  0  0
   19.3581   40.1943  -10.7076 H   0  0  0  0  0  0
   21.8699   38.9728   -9.7661 H   0  0  0  0  0  0
   21.2184   40.8993   -7.2898 H   0  0  0  0  0  0
   19.6719   40.2259   -6.5493 H   0  0  0  0  0  0
   20.6379   37.9008   -6.6464 H   0  0  0  0  0  0
   22.1843   38.5742   -7.3869 H   0  0  0  0  0  0
   17.8666   40.4098   -8.0615 H   0  0  0  0  0  0
   15.5266   36.9462   -9.2495 H   0  0  0  0  0  0
   17.6734   35.7622   -9.6176 H   0  0  0  0  0  0
   14.3357   39.4432  -10.4175 H   0  0  0  0  0  0
   13.1240   39.7523   -9.1954 H   0  0  0  0  0  0
   13.7879   38.1425   -9.3556 H   0  0  0  0  0  0
   15.2938   39.5439   -6.1733 H   0  0  0  0  0  0
   14.4383   38.1653   -6.8479 H   0  0  0  0  0  0
   13.6618   39.7387   -6.7721 H   0  0  0  0  0  0
   14.4718   41.6545   -8.3388 H   0  0  0  0  0  0
   16.1015   41.4537   -7.7355 H   0  0  0  0  0  0
   15.7896   41.3620   -9.4623 H   0  0  0  0  0  0
   11.4390   44.3468   -8.4237 H   0  0  0  0  0  0
   11.9852   42.6932  -10.6381 H   0  0  0  0  0  0
  1  2  1  0  0  0
  1 47  1  0  0  0
  1 48  1  0  0  0
  1 49  1  0  0  0
  2 44  1  0  0  0
  2 21  1  0  0  0
  2  3  1  0  0  0
  3  4  1  0  0  0
  3 50  1  0  0  0
  3 51  1  0  0  0
  4  5  1  0  0  0
  4 52  1  0  0  0
  4 53  1  0  0  0
  5  6  1  0  0  0
  5 54  1  0  0  0
  5 55  1  0  0  0
  6  7  1  0  0  0
  6 56  1  0  0  0
  6 57  1  0  0  0
  7  8  1  0  0  0
  7 58  1  0  0  0
  7 59  1  0  0  0
  8  9  1  0  0  0
  8 60  1  0  0  0
  8 61  1  0  0  0
  9 10  1  0  0  0
  9 62  1  0  0  0
  9 63  1  0  0  0
 10 11  1  0  0  0
 11 16  1  0  0  0
 11 12  2  0  0  0
 12 13  1  0  0  0
 12 64  1  0  0  0
 13 14  2  0  0  0
 13 39  1  0  0  0
 14 15  1  0  0  0
 14 65  1  0  0  0
 15 16  2  0  0  0
 15 17  1  0  0  0
 16 66  1  0  0  0
 17 18  2  0  0  0
 17 19  1  0  0  0
 19 20  1  0  0  0
 19 67  1  0  0  0
 20 45  1  0  0  0
 20 21  1  0  0  0
 20 22  1  0  0  0
 21 68  1  0  0  0
 21 69  1  0  0  0
 22 46  1  0  0  0
 22 23  1  0  0  0
 22 24  1  0  0  0
 23 70  1  0  0  0
 24 25  1  0  0  0
 24 71  1  0  0  0
 24 72  1  0  0  0
 25 26  1  0  0  0
 25 73  1  0  0  0
 26 28  1  0  0  0
 26 27  1  0  0  0
 26 29  1  0  0  0
 27 28  1  0  0  0
 27 74  1  0  0  0
 27 75  1  0  0  0
 28 76  1  0  0  0
 28 77  1  0  0  0
 29 34  1  0  0  0
 29 30  2  0  0  0
 30 31  1  0  0  0
 30 78  1  0  0  0
 31 32  2  0  0  0
 31 35  1  0  0  0
 32 33  1  0  0  0
 32 79  1  0  0  0
 33 34  2  0  0  0
 33 80  1  0  0  0
 35 36  1  0  0  0
 35 37  1  0  0  0
 35 38  1  0  0  0
 36 81  1  0  0  0
 36 82  1  0  0  0
 36 83  1  0  0  0
 37 84  1  0  0  0
 37 85  1  0  0  0
 37 86  1  0  0  0
 38 87  1  0  0  0
 38 88  1  0  0  0
 38 89  1  0  0  0
 39 43  1  0  0  0
 39 40  2  0  0  0
 40 41  1  0  0  0
 41 42  2  0  0  0
 41 90  1  0  0  0
 42 43  1  0  0  0
 42 91  1  0  0  0
M  END
> <s_m_source_file>
BACE_81.smi

> <i_m_source_file_index>
1

> <i_lp_mmshare_version>
42013

> <i_f3d_flags>
0

> <s_epik_input>
TzFbQ0gyXVtDSDJdW0NIMl1bQ0gyXVtDSDJdW0NIMl1bQ0gyXVtDQEBIXShbQ0gzXSlbQ0gyXVtDQEhdKFtOSF1DKD1PKWMoW2NIXTIpW2NIXWMoW2NIXWMxMiktYzNuW2NIXVtjSF1vMylbQ0BIXShbT0hdKVtDSDJdW05IXUM0KFtDSDJdW0NIMl00KWM1W2NIXWMoW2NIXVtjSF1uNSlDKFtDSDNdKShbQ0gzXSlbQ0gzXQ==

> <s_epik_cmdline>
J2VwaWtfcHl0aG9uJywgJy1waCcsICc3LjAnLCAnLXRuJywgJzgnLCAnLW1hJywgJzIwMCcsICctaW1hZScsICc8aW5maWxlLm1hZT4nLCAnLW9tYWUnLCAnPG91dGZpbGUubWFlPic=

> <r_lp_tautomer_probability>
1

> <r_epik_Ionization_Penalty>
  0.2176

> <r_epik_Ionization_Penalty_Charging>
  0.0000

> <r_epik_Ionization_Penalty_Neutral>
  0.2176

> <r_epik_State_Penalty>
  0.0835

> <r_epik_Charging_Adjusted_Penalty>
0.0835319

> <i_epik_Tot_Q>
0

> <i_epik_Tot_abs_Q>
0

> <s_lp_Force_Field>
OPLS_2005

> <r_lp_Energy>
54.7295

> <b_lp_Chiralities_Consistent>
1

> <s_lp_Variant>
BACE_81.smi:1-1

> <chiral flag>
1

> <version>
0

> <s_i_glide_gridfile>
second_dock_grid_2

> <i_i_glide_lignum>
34

> <i_i_glide_rotatable_bonds>
8

> <r_i_docking_score>
-1.95047

> <r_i_glide_ligand_efficiency>
-0.0453598

> <r_i_glide_ligand_efficiency_sa>
-0.158913

> <r_i_glide_ligand_efficiency_ln>
-0.409659

> <r_glide_XP_GScore>
-2.03397

> <r_i_glide_gscore>
-2.03397

> <r_i_glide_evdw>
-45.5289

> <r_i_glide_ecoul>
-7.97994

> <r_i_glide_energy>
-53.5088

> <r_i_glide_einternal>
6.69124

> <r_i_glide_emodel>
-75.7498

> <r_glide_XP_HBond>
-0.574291

> <i_i_glide_confnum>
1

> <i_i_glide_posenum>
4

> <r_i_glide_eff_state_penalty>
0.0835

> <i_glide_XP_PoseRank>
1

$$$$
