BACE_53.smi:1
                    3D
 Structure written by MMmdl.
 80 82  0  0  1  0            999 V2000
   22.7312   42.5487   -3.3929 C   0  0  0  0  0  0
   21.9018   42.8800   -4.6392 C   0  0  0  0  0  0
   20.3992   42.9057   -4.3263 C   0  0  0  0  0  0
   22.2287   41.9259   -5.7802 C   0  0  0  0  0  0
   21.9127   40.5527   -5.6861 C   0  0  0  0  0  0
   22.2283   39.6794   -6.7431 C   0  0  0  0  0  0
   22.8634   40.1685   -7.9001 C   0  0  0  0  0  0
   23.1609   41.5415   -8.0163 C   0  0  0  0  0  0
   23.7892   42.0842   -9.2894 C   0  0  0  0  0  0
   22.8585   42.2324  -10.4198 N   0  0  0  0  0  0
   21.9852   43.4139  -10.4016 C   0  0  0  0  0  0
   20.7302   43.2895   -9.4899 C   0  0  1  0  0  0
   20.3787   44.6049   -9.1025 O   0  0  0  0  0  0
   19.4410   42.6294  -10.0590 C   0  0  2  0  0  0
   19.2804   41.1149   -9.7733 C   0  0  0  0  0  0
   20.2919   40.1078  -10.3697 C   0  0  2  0  0  0
   20.3950   40.0978  -11.9084 C   0  0  0  0  0  0
   20.0348   38.7009   -9.7974 C   0  0  0  0  0  0
   18.8490   37.9623  -10.4400 C   0  0  0  0  0  0
   18.0770   37.0728   -9.4600 C   0  0  0  0  0  0
   17.0830   37.8603   -8.5927 C   0  0  0  0  0  0
   15.6908   37.9950   -9.2390 C   0  0  0  0  0  0
   14.6965   38.7972   -8.3763 C   0  0  0  0  0  0
   14.9064   40.3182   -8.4642 C   0  0  0  0  0  0
   14.3298   40.9303   -9.7536 C   0  0  0  0  0  0
   15.0306   42.2184  -10.1317 C   0  0  0  0  0  0
   16.1479   42.1755  -10.9872 C   0  0  0  0  0  0
   16.8474   43.3697  -11.2406 C   0  0  0  0  0  0
   16.3736   44.5664  -10.6693 C   0  0  0  0  0  0
   15.2400   44.5027   -9.8377 C   0  0  0  0  0  0
   14.5748   43.3602   -9.5718 N   0  0  0  0  0  0
   18.0981   43.3540  -12.0611 C   0  0  0  0  0  0
   18.0591   43.6870  -13.2400 O   0  0  0  0  0  0
   19.2334   42.9457  -11.4723 N   0  0  0  0  0  0
   22.8601   42.4121   -6.9454 C   0  0  0  0  0  0
   20.9615   42.7859   -8.5605 H   0  0  0  0  0  0
   18.6258   43.0662   -9.4805 H   0  0  0  0  0  0
   21.2667   40.3810   -9.9920 H   0  0  0  0  0  0
   23.7917   42.5502   -3.6380 H   0  0  0  0  0  0
   22.4844   41.5639   -2.9955 H   0  0  0  0  0  0
   22.5680   43.2802   -2.6002 H   0  0  0  0  0  0
   22.1809   43.8855   -4.9570 H   0  0  0  0  0  0
   19.8143   43.1511   -5.2134 H   0  0  0  0  0  0
   20.1671   43.6469   -3.5610 H   0  0  0  0  0  0
   20.0569   41.9371   -3.9607 H   0  0  0  0  0  0
   21.4299   40.1629   -4.8007 H   0  0  0  0  0  0
   21.9881   38.6303   -6.6641 H   0  0  0  0  0  0
   23.1029   39.4922   -8.7081 H   0  0  0  0  0  0
   24.3035   43.0254   -9.0846 H   0  0  0  0  0  0
   24.5707   41.3768   -9.5744 H   0  0  0  0  0  0
   23.3810   42.1842  -11.2918 H   0  0  0  0  0  0
   22.5797   44.2712  -10.0798 H   0  0  0  0  0  0
   21.6805   43.6564  -11.4203 H   0  0  0  0  0  0
   19.7319   44.5492   -8.4151 H   0  0  0  0  0  0
   19.2939   40.9981   -8.6879 H   0  0  0  0  0  0
   18.2796   40.8060  -10.0651 H   0  0  0  0  0  0
   19.4181   39.9985  -12.3821 H   0  0  0  0  0  0
   21.0198   39.2733  -12.2520 H   0  0  0  0  0  0
   20.8561   41.0100  -12.2828 H   0  0  0  0  0  0
   20.9309   38.0910   -9.9178 H   0  0  0  0  0  0
   19.8943   38.7762   -8.7181 H   0  0  0  0  0  0
   18.1507   38.6518  -10.9129 H   0  0  0  0  0  0
   19.2597   37.3497  -11.2397 H   0  0  0  0  0  0
   17.5400   36.2974  -10.0045 H   0  0  0  0  0  0
   18.7892   36.5502   -8.8287 H   0  0  0  0  0  0
   16.9719   37.3501   -7.6400 H   0  0  0  0  0  0
   17.4967   38.8372   -8.3461 H   0  0  0  0  0  0
   15.7807   38.4391  -10.2298 H   0  0  0  0  0  0
   15.2845   36.9968   -9.4001 H   0  0  0  0  0  0
   13.6730   38.5613   -8.6726 H   0  0  0  0  0  0
   14.7823   38.4760   -7.3359 H   0  0  0  0  0  0
   14.4603   40.8125   -7.6006 H   0  0  0  0  0  0
   15.9737   40.5301   -8.3959 H   0  0  0  0  0  0
   14.4259   40.2360  -10.5885 H   0  0  0  0  0  0
   13.2602   41.1059   -9.6404 H   0  0  0  0  0  0
   16.4889   41.2354  -11.3989 H   0  0  0  0  0  0
   16.8842   45.5044  -10.8350 H   0  0  0  0  0  0
   14.8612   45.3943   -9.3628 H   0  0  0  0  0  0
   20.0578   42.9084  -12.0505 H   0  0  0  0  0  0
   23.0991   43.4621   -7.0310 H   0  0  0  0  0  0
  1  2  1  0  0  0
  1 39  1  0  0  0
  1 40  1  0  0  0
  1 41  1  0  0  0
  2  3  1  0  0  0
  2  4  1  0  0  0
  2 42  1  0  0  0
  3 43  1  0  0  0
  3 44  1  0  0  0
  3 45  1  0  0  0
  4 35  1  0  0  0
  4  5  2  0  0  0
  5  6  1  0  0  0
  5 46  1  0  0  0
  6  7  2  0  0  0
  6 47  1  0  0  0
  7  8  1  0  0  0
  7 48  1  0  0  0
  8  9  1  0  0  0
  8 35  2  0  0  0
  9 10  1  0  0  0
  9 49  1  0  0  0
  9 50  1  0  0  0
 10 11  1  0  0  0
 10 51  1  0  0  0
 11 12  1  0  0  0
 11 52  1  0  0  0
 11 53  1  0  0  0
 12 36  1  0  0  0
 12 13  1  0  0  0
 12 14  1  0  0  0
 13 54  1  0  0  0
 14 37  1  0  0  0
 14 34  1  0  0  0
 14 15  1  0  0  0
 15 16  1  0  0  0
 15 55  1  0  0  0
 15 56  1  0  0  0
 16 38  1  0  0  0
 16 17  1  0  0  0
 16 18  1  0  0  0
 17 57  1  0  0  0
 17 58  1  0  0  0
 17 59  1  0  0  0
 18 19  1  0  0  0
 18 60  1  0  0  0
 18 61  1  0  0  0
 19 20  1  0  0  0
 19 62  1  0  0  0
 19 63  1  0  0  0
 20 21  1  0  0  0
 20 64  1  0  0  0
 20 65  1  0  0  0
 21 22  1  0  0  0
 21 66  1  0  0  0
 21 67  1  0  0  0
 22 23  1  0  0  0
 22 68  1  0  0  0
 22 69  1  0  0  0
 23 24  1  0  0  0
 23 70  1  0  0  0
 23 71  1  0  0  0
 24 25  1  0  0  0
 24 72  1  0  0  0
 24 73  1  0  0  0
 25 26  1  0  0  0
 25 74  1  0  0  0
 25 75  1  0  0  0
 26 31  1  0  0  0
 26 27  2  0  0  0
 27 28  1  0  0  0
 27 76  1  0  0  0
 28 29  2  0  0  0
 28 32  1  0  0  0
 29 30  1  0  0  0
 29 77  1  0  0  0
 30 31  2  0  0  0
 30 78  1  0  0  0
 32 33  2  0  0  0
 32 34  1  0  0  0
 34 79  1  0  0  0
 35 80  1  0  0  0
M  END
> <s_m_source_file>
BACE_53.smi

> <i_m_source_file_index>
1

> <i_lp_mmshare_version>
42013

> <i_f3d_flags>
0

> <s_epik_input>
W0NIM11bQ0hdKFtDSDNdKWMxW2NIXVtjSF1bY0hdYyhbY0hdMSlbQ0gyXVtOSF1bQ0gyXVtDQEBIXShbT0hdKVtDQEBIXShbTkhdQyg9TyljKFtjSF1jMjMpW2NIXVtjSF1uMylbQ0gyXVtDQEhdKFtDSDNdKVtDSDJdW0NIMl1bQ0gyXVtDSDJdW0NIMl1bQ0gyXVtDSDJdW0NIMl0y

> <s_epik_cmdline>
J2VwaWtfcHl0aG9uJywgJy1waCcsICc3LjAnLCAnLXRuJywgJzgnLCAnLW1hJywgJzIwMCcsICctaW1hZScsICc8aW5maWxlLm1hZT4nLCAnLW9tYWUnLCAnPG91dGZpbGUubWFlPic=

> <r_epik_Ionization_Penalty>
  2.1025

> <r_epik_Ionization_Penalty_Charging>
  0.0000

> <r_epik_Ionization_Penalty_Neutral>
  2.1025

> <r_epik_State_Penalty>
  2.2376

> <r_epik_Charging_Adjusted_Penalty>
2.23761

> <i_epik_Tot_Q>
0

> <i_epik_Tot_abs_Q>
0

> <s_lp_Force_Field>
OPLS_2005

> <r_lp_Energy>
40.4993

> <b_lp_Chiralities_Consistent>
1

> <s_lp_Variant>
BACE_53.smi:1-2

> <chiral flag>
1

> <version>
0

> <s_i_glide_gridfile>
second_dock_grid_2

> <i_i_glide_lignum>
13

> <i_i_glide_rotatable_bonds>
7

> <r_i_docking_score>
-2.39672

> <r_i_glide_ligand_efficiency>
-0.0684777

> <r_i_glide_ligand_efficiency_sa>
-0.223995

> <r_i_glide_ligand_efficiency_ln>
-0.526133

> <r_glide_XP_GScore>
-4.63432

> <r_i_glide_gscore>
-4.63432

> <r_i_glide_evdw>
-40.4816

> <r_i_glide_ecoul>
-6.94264

> <r_i_glide_energy>
-47.4243

> <r_i_glide_einternal>
5.82963

> <r_i_glide_emodel>
-63.8844

> <r_glide_XP_HBond>
-1.89

> <i_i_glide_confnum>
1

> <i_i_glide_posenum>
1

> <r_i_glide_eff_state_penalty>
2.2376

> <i_glide_XP_PoseRank>
1

$$$$
BACE_56.smi:1
                    3D
 Structure written by MMmdl.
 89 92  0  0  1  0            999 V2000
   25.9523   44.7278  -12.3268 C   0  0  0  0  0  0
   26.7329   43.6614  -11.5380 C   0  0  2  0  0  0
   27.7890   43.0242  -12.4754 C   0  0  0  0  0  0
   28.7848   42.0148  -11.8485 C   0  0  0  0  0  0
   30.0617   42.6166  -11.2234 C   0  0  0  0  0  0
   29.8253   43.4674   -9.9657 C   0  0  0  0  0  0
   31.1170   43.8495   -9.2201 C   0  0  0  0  0  0
   30.8357   44.6493   -7.9405 C   0  0  0  0  0  0
   30.4426   46.1104   -8.1999 C   0  0  0  0  0  0
   29.8466   46.7287   -7.0260 N   0  0  0  0  0  0
   28.5552   46.3751   -6.5990 C   0  0  0  0  0  0
   27.6099   45.7378   -7.4434 C   0  0  0  0  0  0
   26.3141   45.4221   -6.9705 C   0  0  0  0  0  0
   25.9670   45.7533   -5.6426 C   0  0  0  0  0  0
   26.9053   46.3700   -4.7946 C   0  0  0  0  0  0
   28.1913   46.6803   -5.2718 C   0  0  0  0  0  0
   25.2804   44.8260   -7.8831 C   0  0  0  0  0  0
   24.1063   45.1897   -7.8203 O   0  0  0  0  0  0
   25.7070   43.8692   -8.7244 N   0  0  0  0  0  0
   24.8840   43.2175   -9.7482 C   0  0  1  0  0  0
   25.7765   42.6328  -10.8729 C   0  0  0  0  0  0
   23.8799   42.2170   -9.1017 C   0  0  2  0  0  0
   24.4557   40.9505   -8.8452 O   0  0  0  0  0  0
   22.5192   42.0757   -9.8279 C   0  0  0  0  0  0
   22.4622   40.9884  -10.8397 N   0  3  0  0  0  0
   21.0894   40.5509  -11.2252 C   0  0  0  0  0  0
   20.3605   41.6764  -11.9847 C   0  0  0  0  0  0
   20.3858   40.9473  -13.2338 O   0  0  0  0  0  0
   21.0827   39.8531  -12.5901 C   0  0  0  0  0  0
   20.3752   39.7956  -10.0855 C   0  0  0  0  0  0
   18.9616   39.6829  -10.0742 C   0  0  0  0  0  0
   18.2736   39.0360   -9.0150 C   0  0  0  0  0  0
   19.0362   38.4754   -7.9665 C   0  0  0  0  0  0
   20.4395   38.5513   -7.9786 C   0  0  0  0  0  0
   21.1073   39.1830   -9.0399 C   0  0  0  0  0  0
   16.7351   38.9067   -8.9849 C   0  0  0  0  0  0
   16.0364   39.7810  -10.0518 C   0  0  0  0  0  0
   16.3503   37.4361   -9.2364 C   0  0  0  0  0  0
   16.1788   39.3342   -7.6060 C   0  0  0  0  0  0
   27.2652   44.1905  -10.7561 H   0  0  0  0  0  0
   24.2862   44.0128  -10.1902 H   0  0  0  0  0  0
   23.6189   42.5975   -8.1134 H   0  0  0  0  0  0
   25.2948   45.3110  -11.6843 H   0  0  0  0  0  0
   25.3407   44.2765  -13.1082 H   0  0  0  0  0  0
   26.6314   45.4346  -12.8028 H   0  0  0  0  0  0
   27.2501   42.5501  -13.2961 H   0  0  0  0  0  0
   28.3683   43.8130  -12.9566 H   0  0  0  0  0  0
   29.1169   41.3553  -12.6523 H   0  0  0  0  0  0
   28.3015   41.3506  -11.1346 H   0  0  0  0  0  0
   30.5996   43.2015  -11.9698 H   0  0  0  0  0  0
   30.7242   41.7897  -10.9651 H   0  0  0  0  0  0
   29.1542   42.9397   -9.2833 H   0  0  0  0  0  0
   29.3245   44.3862  -10.2604 H   0  0  0  0  0  0
   31.6575   42.9500   -8.9425 H   0  0  0  0  0  0
   31.7849   44.4080   -9.8788 H   0  0  0  0  0  0
   31.7200   44.6374   -7.3044 H   0  0  0  0  0  0
   30.0540   44.1475   -7.3691 H   0  0  0  0  0  0
   31.3386   46.6733   -8.4689 H   0  0  0  0  0  0
   29.7710   46.2113   -9.0513 H   0  0  0  0  0  0
   30.4757   47.1436   -6.3515 H   0  0  0  0  0  0
   27.8570   45.5170   -8.4688 H   0  0  0  0  0  0
   24.9794   45.5321   -5.2619 H   0  0  0  0  0  0
   26.6347   46.6076   -3.7765 H   0  0  0  0  0  0
   28.8948   47.1635   -4.6121 H   0  0  0  0  0  0
   26.6801   43.6084   -8.6782 H   0  0  0  0  0  0
   25.1541   42.1737  -11.6404 H   0  0  0  0  0  0
   26.3574   41.8227  -10.4408 H   0  0  0  0  0  0
   24.8937   40.6136   -9.6151 H   0  0  0  0  0  0
   22.2280   43.0250  -10.2744 H   0  0  0  0  0  0
   21.7649   41.8768   -9.0685 H   0  0  0  0  0  0
   22.9298   40.1891  -10.4388 H   0  0  0  0  0  0
   19.3436   41.8788  -11.6529 H   0  0  0  0  0  0
   20.9177   42.6102  -12.0408 H   0  0  0  0  0  0
   20.4852   38.9413  -12.5889 H   0  0  0  0  0  0
   22.0591   39.6709  -13.0363 H   0  0  0  0  0  0
   18.4047   40.0932  -10.8991 H   0  0  0  0  0  0
   18.5532   37.9572   -7.1491 H   0  0  0  0  0  0
   21.0068   38.1120   -7.1704 H   0  0  0  0  0  0
   22.1876   39.1935   -9.0086 H   0  0  0  0  0  0
   16.2927   40.8357   -9.9338 H   0  0  0  0  0  0
   14.9494   39.7020   -9.9740 H   0  0  0  0  0  0
   16.3018   39.4758  -11.0642 H   0  0  0  0  0  0
   16.7274   36.7795   -8.4494 H   0  0  0  0  0  0
   16.7499   37.0751  -10.1829 H   0  0  0  0  0  0
   15.2682   37.3163   -9.2670 H   0  0  0  0  0  0
   16.5072   38.6763   -6.7995 H   0  0  0  0  0  0
   15.0879   39.3035   -7.5877 H   0  0  0  0  0  0
   16.4791   40.3519   -7.3473 H   0  0  0  0  0  0
   22.9659   41.2584  -11.6753 H   0  0  0  0  0  0
  1  2  1  0  0  0
  1 43  1  0  0  0
  1 44  1  0  0  0
  1 45  1  0  0  0
  2 40  1  0  0  0
  2 21  1  0  0  0
  2  3  1  0  0  0
  3  4  1  0  0  0
  3 46  1  0  0  0
  3 47  1  0  0  0
  4  5  1  0  0  0
  4 48  1  0  0  0
  4 49  1  0  0  0
  5  6  1  0  0  0
  5 50  1  0  0  0
  5 51  1  0  0  0
  6  7  1  0  0  0
  6 52  1  0  0  0
  6 53  1  0  0  0
  7  8  1  0  0  0
  7 54  1  0  0  0
  7 55  1  0  0  0
  8  9  1  0  0  0
  8 56  1  0  0  0
  8 57  1  0  0  0
  9 10  1  0  0  0
  9 58  1  0  0  0
  9 59  1  0  0  0
 10 11  1  0  0  0
 10 60  1  0  0  0
 11 16  1  0  0  0
 11 12  2  0  0  0
 12 13  1  0  0  0
 12 61  1  0  0  0
 13 14  2  0  0  0
 13 17  1  0  0  0
 14 15  1  0  0  0
 14 62  1  0  0  0
 15 16  2  0  0  0
 15 63  1  0  0  0
 16 64  1  0  0  0
 17 18  2  0  0  0
 17 19  1  0  0  0
 19 20  1  0  0  0
 19 65  1  0  0  0
 20 41  1  0  0  0
 20 21  1  0  0  0
 20 22  1  0  0  0
 21 66  1  0  0  0
 21 67  1  0  0  0
 22 42  1  0  0  0
 22 23  1  0  0  0
 22 24  1  0  0  0
 23 68  1  0  0  0
 24 25  1  0  0  0
 24 69  1  0  0  0
 24 70  1  0  0  0
 25 26  1  0  0  0
 25 71  1  0  0  0
 25 89  1  0  0  0
 26 29  1  0  0  0
 26 27  1  0  0  0
 26 30  1  0  0  0
 27 28  1  0  0  0
 27 72  1  0  0  0
 27 73  1  0  0  0
 28 29  1  0  0  0
 29 74  1  0  0  0
 29 75  1  0  0  0
 30 35  1  0  0  0
 30 31  2  0  0  0
 31 32  1  0  0  0
 31 76  1  0  0  0
 32 33  2  0  0  0
 32 36  1  0  0  0
 33 34  1  0  0  0
 33 77  1  0  0  0
 34 35  2  0  0  0
 34 78  1  0  0  0
 35 79  1  0  0  0
 36 37  1  0  0  0
 36 38  1  0  0  0
 36 39  1  0  0  0
 37 80  1  0  0  0
 37 81  1  0  0  0
 37 82  1  0  0  0
 38 83  1  0  0  0
 38 84  1  0  0  0
 38 85  1  0  0  0
 39 86  1  0  0  0
 39 87  1  0  0  0
 39 88  1  0  0  0
M  CHG  1  25   1
M  END
> <s_m_source_file>
BACE_56.smi

> <i_m_source_file_index>
1

> <i_lp_mmshare_version>
42013

> <i_f3d_flags>
0

> <s_epik_input>
W05IXTFbQ0gyXVtDSDJdW0NIMl1bQ0gyXVtDSDJdW0NIMl1bQ0gyXVtDQEBIXShbQ0gzXSlbQ0gyXVtDQEhdKFtOSF1DKD1PKWMoW2NIXWMxMilbY0hdW2NIXVtjSF0yKVtDQEhdKFtPSF0pW0NIMl1bTkhdQzMoW0NIMl1PW0NIMl0zKWM0W2NIXWMoQyhbQ0gzXSkoW0NIM10pW0NIM10pW2NIXVtjSF1bY0hdNA==

> <s_epik_cmdline>
J2VwaWtfcHl0aG9uJywgJy1waCcsICc3LjAnLCAnLXRuJywgJzgnLCAnLW1hJywgJzIwMCcsICctaW1hZScsICc8aW5maWxlLm1hZT4nLCAnLW9tYWUnLCAnPG91dGZpbGUubWFlPic=

> <r_epik_Ionization_Penalty>
  0.2027

> <r_epik_Ionization_Penalty_Charging>
  0.2020

> <r_epik_Ionization_Penalty_Neutral>
  0.0007

> <r_epik_State_Penalty>
  0.1919

> <r_epik_Charging_Adjusted_Penalty>
0.393931

> <i_epik_Tot_Q>
1

> <i_epik_Tot_abs_Q>
1

> <s_lp_Force_Field>
OPLS_2005

> <r_lp_Energy>
47.8303

> <b_lp_Chiralities_Consistent>
1

> <s_lp_Variant>
BACE_56.smi:1-1

> <chiral flag>
1

> <version>
0

> <s_i_glide_gridfile>
second_dock_grid_2

> <i_i_glide_lignum>
14

> <i_i_glide_rotatable_bonds>
7

> <r_i_docking_score>
-1.8395

> <r_i_glide_ligand_efficiency>
-0.0471667

> <r_i_glide_ligand_efficiency_sa>
-0.159952

> <r_i_glide_ligand_efficiency_ln>
-0.394441

> <r_glide_XP_GScore>
-2.0314

> <r_i_glide_gscore>
-2.0314

> <r_i_glide_evdw>
-37.5927

> <r_i_glide_ecoul>
-10.1176

> <r_i_glide_energy>
-47.7103

> <r_i_glide_einternal>
7.03498

> <r_i_glide_emodel>
-59.5246

> <r_glide_XP_HBond>
-0.96

> <i_i_glide_confnum>
1

> <i_i_glide_posenum>
9

> <r_i_glide_eff_state_penalty>
0.1919

> <i_glide_XP_PoseRank>
1

$$$$
