BACE_48.smi:1
                    3D
 Structure written by MMmdl.
 89 91  0  0  1  0            999 V2000
   23.1582   43.2672  -10.1652 C   0  0  0  0  0  0
   22.3013   44.0930  -11.1447 C   0  0  2  0  0  0
   23.0198   45.3964  -11.5633 C   0  0  0  0  0  0
   23.1216   46.4843  -10.4832 C   0  0  0  0  0  0
   21.8592   47.1147  -10.3735 O   0  0  0  0  0  0
   21.8013   48.1260   -9.3847 C   0  0  0  0  0  0
   20.3986   48.7368   -9.4607 C   0  0  0  0  0  0
   19.3039   47.7638   -8.9966 C   0  0  0  0  0  0
   17.9110   48.1732   -9.4985 C   0  0  0  0  0  0
   16.8594   47.2929   -9.0109 N   0  0  0  0  0  0
   16.6220   46.0221   -9.5461 C   0  0  0  0  0  0
   17.3693   45.4847  -10.6199 C   0  0  0  0  0  0
   17.0774   44.1743  -11.0497 C   0  0  0  0  0  0
   16.0069   43.4844  -10.4487 C   0  0  0  0  0  0
   15.3136   44.1089   -9.3962 C   0  0  0  0  0  0
   14.1732   43.4005   -8.6951 C   0  0  0  0  0  0
   15.6133   45.3494   -8.9528 N   0  0  0  0  0  0
   17.8663   43.5186  -12.1407 C   0  0  0  0  0  0
   17.3483   43.3500  -13.2399 O   0  0  0  0  0  0
   19.1139   43.0747  -11.9009 N   0  0  0  0  0  0
   19.9551   43.0669  -10.6984 C   0  0  1  0  0  0
   20.8637   44.3191  -10.6057 C   0  0  0  0  0  0
   19.2362   42.5920   -9.3982 C   0  0  2  0  0  0
   18.8276   43.6870   -8.6018 O   0  0  0  0  0  0
   20.1067   41.7470   -8.4627 C   0  0  0  0  0  0
   20.6669   40.5380   -9.1249 N   0  3  0  0  0  0
   20.8382   39.3302   -8.2855 C   0  0  0  0  0  0
   19.4853   38.5911   -8.2418 C   0  0  0  0  0  0
   21.8950   38.4189   -8.9336 C   0  0  0  0  0  0
   21.2755   39.7248   -6.8910 C   0  0  0  0  0  0
   20.4738   39.7635   -5.7220 C   0  0  0  0  0  0
   21.2526   40.4155   -4.8102 C   0  0  0  0  0  0
   21.0137   40.8761   -3.4105 C   0  0  0  0  0  0
   20.9763   42.4158   -3.1852 C   0  0  0  0  0  0
   20.3536   43.1857   -4.3746 C   0  0  0  0  0  0
   22.4157   42.9338   -2.9642 C   0  0  0  0  0  0
   20.1360   42.6902   -1.9206 C   0  0  0  0  0  0
   22.4599   40.7073   -5.3554 O   0  0  0  0  0  0
   22.4587   40.2853   -6.6893 N   0  0  0  0  0  0
   22.2222   43.5028  -12.0598 H   0  0  0  0  0  0
   20.6157   42.2478  -10.9727 H   0  0  0  0  0  0
   18.3569   42.0060   -9.6607 H   0  0  0  0  0  0
   23.2242   43.7410   -9.1853 H   0  0  0  0  0  0
   24.1755   43.1420  -10.5399 H   0  0  0  0  0  0
   22.7544   42.2679  -10.0174 H   0  0  0  0  0  0
   24.0281   45.1418  -11.8977 H   0  0  0  0  0  0
   22.5259   45.8167  -12.4402 H   0  0  0  0  0  0
   23.4385   46.0662   -9.5268 H   0  0  0  0  0  0
   23.8653   47.2251  -10.7785 H   0  0  0  0  0  0
   21.9932   47.7135   -8.3937 H   0  0  0  0  0  0
   22.5537   48.8906   -9.5848 H   0  0  0  0  0  0
   20.3511   49.6454   -8.8587 H   0  0  0  0  0  0
   20.2081   49.0460  -10.4897 H   0  0  0  0  0  0
   19.5337   46.7599   -9.3494 H   0  0  0  0  0  0
   19.3119   47.7023   -7.9077 H   0  0  0  0  0  0
   17.6863   49.1847   -9.1597 H   0  0  0  0  0  0
   17.8878   48.2031  -10.5886 H   0  0  0  0  0  0
   16.2741   47.6053   -8.2520 H   0  0  0  0  0  0
   18.1772   46.0310  -11.0794 H   0  0  0  0  0  0
   15.7476   42.4833  -10.7650 H   0  0  0  0  0  0
   13.9572   42.4369   -9.1629 H   0  0  0  0  0  0
   13.2626   44.0027   -8.7362 H   0  0  0  0  0  0
   14.4146   43.2127   -7.6468 H   0  0  0  0  0  0
   19.5448   42.6389  -12.7006 H   0  0  0  0  0  0
   20.9410   44.6687   -9.5750 H   0  0  0  0  0  0
   20.3969   45.1375  -11.1536 H   0  0  0  0  0  0
   18.1570   43.4024   -7.9967 H   0  0  0  0  0  0
   20.9332   42.3355   -8.0559 H   0  0  0  0  0  0
   19.4773   41.4646   -7.6203 H   0  0  0  0  0  0
   20.0842   40.2829   -9.9049 H   0  0  0  0  0  0
   19.5224   37.7496   -7.5538 H   0  0  0  0  0  0
   19.1965   38.2074   -9.2213 H   0  0  0  0  0  0
   18.6779   39.2359   -7.8963 H   0  0  0  0  0  0
   22.0606   37.5039   -8.3674 H   0  0  0  0  0  0
   22.8595   38.9232   -8.9680 H   0  0  0  0  0  0
   21.6263   38.1396   -9.9534 H   0  0  0  0  0  0
   19.4520   39.4305   -5.6076 H   0  0  0  0  0  0
   20.0624   40.4470   -3.0928 H   0  0  0  0  0  0
   21.7592   40.4243   -2.7611 H   0  0  0  0  0  0
   20.3899   44.2580   -4.2037 H   0  0  0  0  0  0
   19.3026   42.9415   -4.5233 H   0  0  0  0  0  0
   20.8809   43.0089   -5.3119 H   0  0  0  0  0  0
   23.0793   42.6469   -3.7803 H   0  0  0  0  0  0
   22.8425   42.5455   -2.0426 H   0  0  0  0  0  0
   22.4601   44.0188   -2.8934 H   0  0  0  0  0  0
   20.1105   43.7500   -1.6736 H   0  0  0  0  0  0
   20.5401   42.1625   -1.0589 H   0  0  0  0  0  0
   19.1025   42.3653   -2.0433 H   0  0  0  0  0  0
   21.5836   40.7899   -9.4673 H   0  0  0  0  0  0
  1  2  1  0  0  0
  1 43  1  0  0  0
  1 44  1  0  0  0
  1 45  1  0  0  0
  2 40  1  0  0  0
  2 22  1  0  0  0
  2  3  1  0  0  0
  3  4  1  0  0  0
  3 46  1  0  0  0
  3 47  1  0  0  0
  4  5  1  0  0  0
  4 48  1  0  0  0
  4 49  1  0  0  0
  5  6  1  0  0  0
  6  7  1  0  0  0
  6 50  1  0  0  0
  6 51  1  0  0  0
  7  8  1  0  0  0
  7 52  1  0  0  0
  7 53  1  0  0  0
  8  9  1  0  0  0
  8 54  1  0  0  0
  8 55  1  0  0  0
  9 10  1  0  0  0
  9 56  1  0  0  0
  9 57  1  0  0  0
 10 11  1  0  0  0
 10 58  1  0  0  0
 11 17  1  0  0  0
 11 12  2  0  0  0
 12 13  1  0  0  0
 12 59  1  0  0  0
 13 14  2  0  0  0
 13 18  1  0  0  0
 14 15  1  0  0  0
 14 60  1  0  0  0
 15 16  1  0  0  0
 15 17  2  0  0  0
 16 61  1  0  0  0
 16 62  1  0  0  0
 16 63  1  0  0  0
 18 19  2  0  0  0
 18 20  1  0  0  0
 20 21  1  0  0  0
 20 64  1  0  0  0
 21 41  1  0  0  0
 21 22  1  0  0  0
 21 23  1  0  0  0
 22 65  1  0  0  0
 22 66  1  0  0  0
 23 42  1  0  0  0
 23 24  1  0  0  0
 23 25  1  0  0  0
 24 67  1  0  0  0
 25 26  1  0  0  0
 25 68  1  0  0  0
 25 69  1  0  0  0
 26 27  1  0  0  0
 26 70  1  0  0  0
 26 89  1  0  0  0
 27 28  1  0  0  0
 27 29  1  0  0  0
 27 30  1  0  0  0
 28 71  1  0  0  0
 28 72  1  0  0  0
 28 73  1  0  0  0
 29 74  1  0  0  0
 29 75  1  0  0  0
 29 76  1  0  0  0
 30 39  2  0  0  0
 30 31  1  0  0  0
 31 32  2  0  0  0
 31 77  1  0  0  0
 32 33  1  0  0  0
 32 38  1  0  0  0
 33 34  1  0  0  0
 33 78  1  0  0  0
 33 79  1  0  0  0
 34 35  1  0  0  0
 34 36  1  0  0  0
 34 37  1  0  0  0
 35 80  1  0  0  0
 35 81  1  0  0  0
 35 82  1  0  0  0
 36 83  1  0  0  0
 36 84  1  0  0  0
 36 85  1  0  0  0
 37 86  1  0  0  0
 37 87  1  0  0  0
 37 88  1  0  0  0
 38 39  1  0  0  0
M  CHG  1  26   1
M  END
> <s_m_source_file>
BACE_48.smi

> <i_m_source_file_index>
1

> <i_lp_mmshare_version>
42013

> <i_f3d_flags>
0

> <s_epik_input>
W05IXTFbQ0gyXVtDSDJdW0NIMl1bQ0gyXU9bQ0gyXVtDSDJdW0NAQEhdKFtDSDNdKVtDSDJdW0NASF0oW05IXUMoPU8pYyhbY0hdYzEyKVtjSF1jKG4yKVtDSDNdKVtDQEhdKFtPSF0pW0NIMl1bTkhdQyhbQ0gzXSkoW0NIM10pYzNbY0hdYyhvbjMpW0NIMl1DKFtDSDNdKShbQ0gzXSlbQ0gzXQ==

> <s_epik_cmdline>
J2VwaWtfcHl0aG9uJywgJy1waCcsICc3LjAnLCAnLXRuJywgJzgnLCAnLW1hJywgJzIwMCcsICctaW1hZScsICc8aW5maWxlLm1hZT4nLCAnLW9tYWUnLCAnPG91dGZpbGUubWFlPic=

> <r_lp_tautomer_probability>
1

> <r_epik_Ionization_Penalty>
  0.2279

> <r_epik_Ionization_Penalty_Charging>
  0.2173

> <r_epik_Ionization_Penalty_Neutral>
  0.0105

> <r_epik_State_Penalty>
  0.2009

> <r_epik_Charging_Adjusted_Penalty>
0.418284

> <i_epik_Tot_Q>
1

> <i_epik_Tot_abs_Q>
1

> <s_lp_Force_Field>
OPLS_2005

> <r_lp_Energy>
30.832

> <b_lp_Chiralities_Consistent>
1

> <s_lp_Variant>
BACE_48.smi:1-1

> <chiral flag>
1

> <version>
0

> <s_i_glide_gridfile>
second_dock_grid_2

> <i_i_glide_lignum>
5

> <i_i_glide_rotatable_bonds>
8

> <r_i_docking_score>
-4.033

> <r_i_glide_ligand_efficiency>
-0.10341

> <r_i_glide_ligand_efficiency_sa>
-0.350686

> <r_i_glide_ligand_efficiency_ln>
-0.86479

> <r_glide_XP_GScore>
-4.2339

> <r_i_glide_gscore>
-4.2339

> <r_i_glide_evdw>
-35.5715

> <r_i_glide_ecoul>
-8.93953

> <r_i_glide_energy>
-44.5111

> <r_i_glide_einternal>
1.48598

> <r_i_glide_emodel>
-59.1724

> <r_glide_XP_HBond>
0

> <i_i_glide_confnum>
1

> <i_i_glide_posenum>
4

> <r_i_glide_eff_state_penalty>
0.2009

> <i_glide_XP_PoseRank>
1

$$$$
BACE_48.smi:1
                    3D
 Structure written by MMmdl.
 88 90  0  0  1  0            999 V2000
   20.3737   44.3677  -10.7217 C   0  0  0  0  0  0
   21.8326   43.9606  -10.4429 C   0  0  2  0  0  0
   22.4143   43.0462  -11.5488 C   0  0  0  0  0  0
   21.6554   41.7397  -11.8391 C   0  0  0  0  0  0
   21.8221   40.8515  -10.7518 O   0  0  0  0  0  0
   21.1999   39.5922  -10.9382 C   0  0  0  0  0  0
   21.3929   38.7925   -9.6443 C   0  0  0  0  0  0
   20.6330   39.4230   -8.4689 C   0  0  0  0  0  0
   21.1680   38.9930   -7.0999 C   0  0  0  0  0  0
   20.5311   39.7461   -6.0311 N   0  0  0  0  0  0
   21.1989   40.8073   -5.4128 C   0  0  0  0  0  0
   22.1219   41.6296   -6.0962 C   0  0  0  0  0  0
   22.6927   42.7209   -5.4060 C   0  0  0  0  0  0
   22.3516   42.9148   -4.0523 C   0  0  0  0  0  0
   21.4191   42.0426   -3.4630 C   0  0  0  0  0  0
   20.9536   42.2553   -2.0395 C   0  0  0  0  0  0
   20.8599   41.0097   -4.1245 N   0  0  0  0  0  0
   23.6354   43.6776   -6.0738 C   0  0  0  0  0  0
   24.7755   43.8081   -5.6416 O   0  0  0  0  0  0
   23.2071   44.4382   -7.0974 N   0  0  0  0  0  0
   21.9649   44.4559   -7.8802 C   0  0  1  0  0  0
   22.0305   43.3919   -9.0174 C   0  0  0  0  0  0
   20.6537   44.5745   -7.0178 C   0  0  2  0  0  0
   19.6478   43.6768   -7.4387 O   0  0  0  0  0  0
   20.0308   45.9780   -7.0754 C   0  0  0  0  0  0
   20.8524   46.9591   -6.3546 N   0  0  0  0  0  0
   20.6735   48.3750   -6.7242 C   0  0  0  0  0  0
   21.2952   48.6081   -8.1195 C   0  0  0  0  0  0
   19.1708   48.7458   -6.7304 C   0  0  0  0  0  0
   21.3789   49.2468   -5.7008 C   0  0  0  0  0  0
   21.9779   48.8913   -4.4587 C   0  0  0  0  0  0
   22.3265   50.0867   -3.8907 C   0  0  0  0  0  0
   22.8740   50.5066   -2.5540 C   0  0  0  0  0  0
   24.3193   50.0579   -2.1748 C   0  0  0  0  0  0
   25.2918   51.2224   -2.4447 C   0  0  0  0  0  0
   24.8102   48.8223   -2.9601 C   0  0  0  0  0  0
   24.3688   49.7131   -0.6706 C   0  0  0  0  0  0
   22.0481   51.0878   -4.7551 O   0  0  0  0  0  0
   21.4448   50.5501   -5.8941 N   0  0  0  0  0  0
   22.4301   44.8730  -10.5055 H   0  0  0  0  0  0
   22.0629   45.4145   -8.3881 H   0  0  0  0  0  0
   20.8279   44.3529   -5.9677 H   0  0  0  0  0  0
   19.6887   43.5269  -10.5957 H   0  0  0  0  0  0
   20.2583   44.7449  -11.7384 H   0  0  0  0  0  0
   20.0464   45.1577  -10.0474 H   0  0  0  0  0  0
   22.4587   43.6274  -12.4667 H   0  0  0  0  0  0
   23.4518   42.8070  -11.3173 H   0  0  0  0  0  0
   20.5986   41.9272  -12.0240 H   0  0  0  0  0  0
   22.0597   41.2843  -12.7441 H   0  0  0  0  0  0
   20.1386   39.7124  -11.1592 H   0  0  0  0  0  0
   21.6593   39.0748  -11.7799 H   0  0  0  0  0  0
   21.0649   37.7612   -9.7800 H   0  0  0  0  0  0
   22.4594   38.7475   -9.4215 H   0  0  0  0  0  0
   20.6975   40.5052   -8.5365 H   0  0  0  0  0  0
   19.5721   39.1895   -8.5483 H   0  0  0  0  0  0
   20.9714   37.9327   -6.9403 H   0  0  0  0  0  0
   22.2511   39.1114   -7.0498 H   0  0  0  0  0  0
   19.8391   39.2660   -5.4740 H   0  0  0  0  0  0
   22.3796   41.4409   -7.1267 H   0  0  0  0  0  0
   22.7692   43.7382   -3.4922 H   0  0  0  0  0  0
   21.7865   42.5510   -1.4040 H   0  0  0  0  0  0
   20.5116   41.3468   -1.6321 H   0  0  0  0  0  0
   20.2011   43.0443   -2.0123 H   0  0  0  0  0  0
   23.9190   45.0680   -7.4389 H   0  0  0  0  0  0
   21.3288   42.5799   -8.8526 H   0  0  0  0  0  0
   23.0106   42.9115   -8.9920 H   0  0  0  0  0  0
   19.8531   42.8124   -7.1119 H   0  0  0  0  0  0
   19.8899   46.2533   -8.1165 H   0  0  0  0  0  0
   19.0335   45.9520   -6.6329 H   0  0  0  0  0  0
   21.8258   46.7168   -6.5017 H   0  0  0  0  0  0
   21.2077   49.6510   -8.4220 H   0  0  0  0  0  0
   20.8091   48.0210   -8.8976 H   0  0  0  0  0  0
   22.3554   48.3530   -8.1283 H   0  0  0  0  0  0
   19.0235   49.8045   -6.9314 H   0  0  0  0  0  0
   18.7114   48.5365   -5.7645 H   0  0  0  0  0  0
   18.6098   48.2066   -7.4957 H   0  0  0  0  0  0
   22.0602   47.9044   -4.0398 H   0  0  0  0  0  0
   22.7894   51.5904   -2.4535 H   0  0  0  0  0  0
   22.1745   50.1508   -1.8015 H   0  0  0  0  0  0
   26.3163   50.9503   -2.1900 H   0  0  0  0  0  0
   25.0380   52.1052   -1.8586 H   0  0  0  0  0  0
   25.2829   51.5097   -3.4963 H   0  0  0  0  0  0
   24.8526   49.0106   -4.0337 H   0  0  0  0  0  0
   24.1626   47.9606   -2.7943 H   0  0  0  0  0  0
   25.8155   48.5303   -2.6529 H   0  0  0  0  0  0
   25.3796   49.4489   -0.3570 H   0  0  0  0  0  0
   23.7296   48.8601   -0.4417 H   0  0  0  0  0  0
   24.0479   50.5496   -0.0482 H   0  0  0  0  0  0
  1  2  1  0  0  0
  1 43  1  0  0  0
  1 44  1  0  0  0
  1 45  1  0  0  0
  2 40  1  0  0  0
  2 22  1  0  0  0
  2  3  1  0  0  0
  3  4  1  0  0  0
  3 46  1  0  0  0
  3 47  1  0  0  0
  4  5  1  0  0  0
  4 48  1  0  0  0
  4 49  1  0  0  0
  5  6  1  0  0  0
  6  7  1  0  0  0
  6 50  1  0  0  0
  6 51  1  0  0  0
  7  8  1  0  0  0
  7 52  1  0  0  0
  7 53  1  0  0  0
  8  9  1  0  0  0
  8 54  1  0  0  0
  8 55  1  0  0  0
  9 10  1  0  0  0
  9 56  1  0  0  0
  9 57  1  0  0  0
 10 11  1  0  0  0
 10 58  1  0  0  0
 11 17  1  0  0  0
 11 12  2  0  0  0
 12 13  1  0  0  0
 12 59  1  0  0  0
 13 14  2  0  0  0
 13 18  1  0  0  0
 14 15  1  0  0  0
 14 60  1  0  0  0
 15 16  1  0  0  0
 15 17  2  0  0  0
 16 61  1  0  0  0
 16 62  1  0  0  0
 16 63  1  0  0  0
 18 19  2  0  0  0
 18 20  1  0  0  0
 20 21  1  0  0  0
 20 64  1  0  0  0
 21 41  1  0  0  0
 21 22  1  0  0  0
 21 23  1  0  0  0
 22 65  1  0  0  0
 22 66  1  0  0  0
 23 42  1  0  0  0
 23 24  1  0  0  0
 23 25  1  0  0  0
 24 67  1  0  0  0
 25 26  1  0  0  0
 25 68  1  0  0  0
 25 69  1  0  0  0
 26 27  1  0  0  0
 26 70  1  0  0  0
 27 28  1  0  0  0
 27 29  1  0  0  0
 27 30  1  0  0  0
 28 71  1  0  0  0
 28 72  1  0  0  0
 28 73  1  0  0  0
 29 74  1  0  0  0
 29 75  1  0  0  0
 29 76  1  0  0  0
 30 39  2  0  0  0
 30 31  1  0  0  0
 31 32  2  0  0  0
 31 77  1  0  0  0
 32 33  1  0  0  0
 32 38  1  0  0  0
 33 34  1  0  0  0
 33 78  1  0  0  0
 33 79  1  0  0  0
 34 35  1  0  0  0
 34 36  1  0  0  0
 34 37  1  0  0  0
 35 80  1  0  0  0
 35 81  1  0  0  0
 35 82  1  0  0  0
 36 83  1  0  0  0
 36 84  1  0  0  0
 36 85  1  0  0  0
 37 86  1  0  0  0
 37 87  1  0  0  0
 37 88  1  0  0  0
 38 39  1  0  0  0
M  END
> <s_m_source_file>
BACE_48.smi

> <i_m_source_file_index>
1

> <i_lp_mmshare_version>
42013

> <i_f3d_flags>
0

> <s_epik_input>
W05IXTFbQ0gyXVtDSDJdW0NIMl1bQ0gyXU9bQ0gyXVtDSDJdW0NAQEhdKFtDSDNdKVtDSDJdW0NASF0oW05IXUMoPU8pYyhbY0hdYzEyKVtjSF1jKG4yKVtDSDNdKVtDQEhdKFtPSF0pW0NIMl1bTkhdQyhbQ0gzXSkoW0NIM10pYzNbY0hdYyhvbjMpW0NIMl1DKFtDSDNdKShbQ0gzXSlbQ0gzXQ==

> <s_epik_cmdline>
J2VwaWtfcHl0aG9uJywgJy1waCcsICc3LjAnLCAnLXRuJywgJzgnLCAnLW1hJywgJzIwMCcsICctaW1hZScsICc8aW5maWxlLm1hZT4nLCAnLW9tYWUnLCAnPG91dGZpbGUubWFlPic=

> <r_lp_tautomer_probability>
1

> <r_epik_Ionization_Penalty>
  0.7157

> <r_epik_Ionization_Penalty_Charging>
  0.0000

> <r_epik_Ionization_Penalty_Neutral>
  0.7157

> <r_epik_State_Penalty>
  0.7724

> <r_epik_Charging_Adjusted_Penalty>
0.772402

> <i_epik_Tot_Q>
0

> <i_epik_Tot_abs_Q>
0

> <s_lp_Force_Field>
OPLS_2005

> <r_lp_Energy>
39.7757

> <b_lp_Chiralities_Consistent>
1

> <s_lp_Variant>
BACE_48.smi:1-2

> <chiral flag>
1

> <version>
0

> <s_i_glide_gridfile>
second_dock_grid_2

> <i_i_glide_lignum>
6

> <i_i_glide_rotatable_bonds>
8

> <r_i_docking_score>
-2.29165

> <r_i_glide_ligand_efficiency>
-0.0587604

> <r_i_glide_ligand_efficiency_sa>
-0.199269

> <r_i_glide_ligand_efficiency_ln>
-0.491396

> <r_glide_XP_GScore>
-3.06405

> <r_i_glide_gscore>
-3.06405

> <r_i_glide_evdw>
-42.6209

> <r_i_glide_ecoul>
-1.33391

> <r_i_glide_energy>
-43.9548

> <r_i_glide_einternal>
9.22492

> <r_i_glide_emodel>
-53.4009

> <r_glide_XP_HBond>
-0.572563

> <i_i_glide_confnum>
1

> <i_i_glide_posenum>
4

> <r_i_glide_eff_state_penalty>
0.7724

> <i_glide_XP_PoseRank>
1

$$$$
