BACE_105.smi:1
                    3D
 Structure written by MMmdl.
 78 81  0  0  1  0            999 V2000
   19.3491   42.6910   -1.6639 C   0  0  0  0  0  0
   20.8119   42.2903   -1.5854 C   0  0  0  0  0  0
   21.5027   43.1987   -0.5549 C   0  0  0  0  0  0
   21.4522   42.2668   -2.9714 C   0  0  0  0  0  0
   22.4596   43.1828   -3.3381 C   0  0  0  0  0  0
   23.0232   43.1456   -4.6232 C   0  0  0  0  0  0
   22.5896   42.1902   -5.5505 C   0  0  0  0  0  0
   21.5861   41.2612   -5.2105 C   0  0  0  0  0  0
   21.0917   40.2461   -6.2303 C   0  0  0  0  0  0
   22.1954   39.5721   -6.9104 N   0  0  0  0  0  0
   22.1319   39.4992   -8.3705 C   0  0  0  0  0  0
   22.4833   40.8431   -9.0715 C   0  0  1  0  0  0
   23.2502   40.5501  -10.2206 O   0  0  0  0  0  0
   21.3114   41.7680   -9.5349 C   0  0  2  0  0  0
   21.1411   43.0241   -8.6420 C   0  0  0  0  0  0
   19.9937   43.9443   -9.0372 C   0  0  0  0  0  0
   20.1511   44.8440  -10.1093 C   0  0  0  0  0  0
   19.0947   45.6988  -10.4767 C   0  0  0  0  0  0
   19.2817   46.6689  -11.6232 C   0  0  0  0  0  0
   17.8706   45.6502   -9.7778 C   0  0  0  0  0  0
   17.6959   44.7412   -8.7048 C   0  0  0  0  0  0
   18.7690   43.9035   -8.3379 C   0  0  0  0  0  0
   16.5337   44.6156   -7.9734 O   0  0  0  0  0  0
   15.3272   45.2083   -8.4470 C   0  0  0  0  0  0
   14.7634   44.4714   -9.6755 C   0  0  0  0  0  0
   14.4711   42.9881   -9.4125 C   0  0  0  0  0  0
   14.0717   42.2562  -10.7065 C   0  0  0  0  0  0
   14.2223   40.8117  -10.6123 N   0  0  0  0  0  0
   15.4868   40.2368  -10.4386 C   0  0  0  0  0  0
   16.6783   40.9448  -10.7115 C   0  0  0  0  0  0
   17.9124   40.3306  -10.4266 C   0  0  0  0  0  0
   17.9095   39.0166   -9.9196 C   0  0  0  0  0  0
   16.6722   38.3720   -9.7240 C   0  0  0  0  0  0
   16.6653   36.7191   -9.2391 Cl  0  0  0  0  0  0
   15.4880   38.9732   -9.9740 N   0  0  0  0  0  0
   19.1864   41.0770  -10.6680 C   0  0  0  0  0  0
   19.3539   41.7345  -11.6968 O   0  0  0  0  0  0
   20.0458   41.0382   -9.6372 N   0  0  0  0  0  0
   21.0290   41.3006   -3.9144 C   0  0  0  0  0  0
   23.1739   41.4091   -8.4496 H   0  0  0  0  0  0
   21.5635   42.1581  -10.5241 H   0  0  0  0  0  0
   18.8602   42.1058   -2.4313 H   0  0  0  0  0  0
   19.2625   43.7417   -1.9266 H   0  0  0  0  0  0
   18.8299   42.5373   -0.7190 H   0  0  0  0  0  0
   20.8547   41.2586   -1.2402 H   0  0  0  0  0  0
   22.5523   42.9576   -0.4604 H   0  0  0  0  0  0
   21.0459   43.0904    0.4285 H   0  0  0  0  0  0
   21.4292   44.2482   -0.8348 H   0  0  0  0  0  0
   22.8173   43.9330   -2.6481 H   0  0  0  0  0  0
   23.7969   43.8520   -4.8884 H   0  0  0  0  0  0
   23.0391   42.1865   -6.5291 H   0  0  0  0  0  0
   20.4691   39.5079   -5.7247 H   0  0  0  0  0  0
   20.4365   40.7495   -6.9361 H   0  0  0  0  0  0
   23.0708   39.9897   -6.6121 H   0  0  0  0  0  0
   22.8607   38.7516   -8.6783 H   0  0  0  0  0  0
   21.1809   39.0855   -8.7009 H   0  0  0  0  0  0
   23.8988   39.8872  -10.0073 H   0  0  0  0  0  0
   20.9810   42.7353   -7.6071 H   0  0  0  0  0  0
   22.0631   43.6095   -8.6504 H   0  0  0  0  0  0
   21.0854   44.8809  -10.6509 H   0  0  0  0  0  0
   18.3372   47.1269  -11.9218 H   0  0  0  0  0  0
   19.6912   46.1498  -12.4896 H   0  0  0  0  0  0
   19.9752   47.4621  -11.3384 H   0  0  0  0  0  0
   17.0823   46.3196  -10.0796 H   0  0  0  0  0  0
   18.6410   43.2116   -7.5178 H   0  0  0  0  0  0
   14.5966   45.1526   -7.6405 H   0  0  0  0  0  0
   15.4618   46.2698   -8.6438 H   0  0  0  0  0  0
   13.8460   44.9498  -10.0125 H   0  0  0  0  0  0
   15.4674   44.5526  -10.5031 H   0  0  0  0  0  0
   15.3610   42.5363   -8.9736 H   0  0  0  0  0  0
   13.6853   42.8789   -8.6617 H   0  0  0  0  0  0
   13.0309   42.4789  -10.9438 H   0  0  0  0  0  0
   14.6542   42.6191  -11.5513 H   0  0  0  0  0  0
   13.4185   40.2721  -10.3062 H   0  0  0  0  0  0
   16.6717   41.9558  -11.0871 H   0  0  0  0  0  0
   18.8304   38.4879   -9.7145 H   0  0  0  0  0  0
   19.7693   40.4868   -8.8375 H   0  0  0  0  0  0
   20.2525   40.5935   -3.6494 H   0  0  0  0  0  0
  1  2  1  0  0  0
  1 42  1  0  0  0
  1 43  1  0  0  0
  1 44  1  0  0  0
  2  3  1  0  0  0
  2  4  1  0  0  0
  2 45  1  0  0  0
  3 46  1  0  0  0
  3 47  1  0  0  0
  3 48  1  0  0  0
  4 39  1  0  0  0
  4  5  2  0  0  0
  5  6  1  0  0  0
  5 49  1  0  0  0
  6  7  2  0  0  0
  6 50  1  0  0  0
  7  8  1  0  0  0
  7 51  1  0  0  0
  8  9  1  0  0  0
  8 39  2  0  0  0
  9 10  1  0  0  0
  9 52  1  0  0  0
  9 53  1  0  0  0
 10 11  1  0  0  0
 10 54  1  0  0  0
 11 12  1  0  0  0
 11 55  1  0  0  0
 11 56  1  0  0  0
 12 40  1  0  0  0
 12 13  1  0  0  0
 12 14  1  0  0  0
 13 57  1  0  0  0
 14 41  1  0  0  0
 14 38  1  0  0  0
 14 15  1  0  0  0
 15 16  1  0  0  0
 15 58  1  0  0  0
 15 59  1  0  0  0
 16 22  1  0  0  0
 16 17  2  0  0  0
 17 18  1  0  0  0
 17 60  1  0  0  0
 18 19  1  0  0  0
 18 20  2  0  0  0
 19 61  1  0  0  0
 19 62  1  0  0  0
 19 63  1  0  0  0
 20 21  1  0  0  0
 20 64  1  0  0  0
 21 22  2  0  0  0
 21 23  1  0  0  0
 22 65  1  0  0  0
 23 24  1  0  0  0
 24 25  1  0  0  0
 24 66  1  0  0  0
 24 67  1  0  0  0
 25 26  1  0  0  0
 25 68  1  0  0  0
 25 69  1  0  0  0
 26 27  1  0  0  0
 26 70  1  0  0  0
 26 71  1  0  0  0
 27 28  1  0  0  0
 27 72  1  0  0  0
 27 73  1  0  0  0
 28 29  1  0  0  0
 28 74  1  0  0  0
 29 35  1  0  0  0
 29 30  2  0  0  0
 30 31  1  0  0  0
 30 75  1  0  0  0
 31 32  2  0  0  0
 31 36  1  0  0  0
 32 33  1  0  0  0
 32 76  1  0  0  0
 33 34  1  0  0  0
 33 35  2  0  0  0
 36 37  2  0  0  0
 36 38  1  0  0  0
 38 77  1  0  0  0
 39 78  1  0  0  0
M  END
> <s_m_source_file>
BACE_105.smi

> <i_m_source_file_index>
1

> <i_lp_mmshare_version>
42013

> <i_f3d_flags>
0

> <s_epik_input>
W0NIM11bQ0hdKFtDSDNdKWMxW2NIXVtjSF1bY0hdYyhbY0hdMSlbQ0gyXVtOSF1bQ0gyXVtDQEBIXShbT0hdKVtDQEhdKFtDSDJdMilbTkhdQyg9TyljKFtjSF1jKENsKW4zKVtjSF1jM1tOSF1bQ0gyXVtDSDJdW0NIMl1bQ0gyXU9jKFtjSF00KVtjSF1jKFtjSF1jMjQpW0NIM10=

> <s_epik_cmdline>
J2VwaWtfcHl0aG9uJywgJy1waCcsICc3LjAnLCAnLXRuJywgJzgnLCAnLW1hJywgJzIwMCcsICctaW1hZScsICc8aW5maWxlLm1hZT4nLCAnLW9tYWUnLCAnPG91dGZpbGUubWFlPic=

> <r_lp_tautomer_probability>
1

> <r_epik_Ionization_Penalty>
  2.0161

> <r_epik_Ionization_Penalty_Charging>
  0.0000

> <r_epik_Ionization_Penalty_Neutral>
  2.0161

> <r_epik_State_Penalty>
  2.1460

> <r_epik_Charging_Adjusted_Penalty>
2.14597

> <i_epik_Tot_Q>
0

> <i_epik_Tot_abs_Q>
0

> <s_lp_Force_Field>
OPLS_2005

> <r_lp_Energy>
28.8296

> <b_lp_Chiralities_Consistent>
1

> <s_lp_Variant>
BACE_105.smi:1-2

> <chiral flag>
1

> <version>
0

> <s_i_glide_gridfile>
second_dock_grid_2

> <i_i_glide_lignum>
45

> <i_i_glide_rotatable_bonds>
7

> <r_i_docking_score>
-2.80641

> <r_i_glide_ligand_efficiency>
-0.0719593

> <r_i_glide_ligand_efficiency_sa>
-0.244029

> <r_i_glide_ligand_efficiency_ln>
-0.601775

> <r_glide_XP_GScore>
-4.95241

> <r_i_glide_gscore>
-4.95241

> <r_i_glide_evdw>
-42.1973

> <r_i_glide_ecoul>
-6.10501

> <r_i_glide_energy>
-48.3023

> <r_i_glide_einternal>
7.69133

> <r_i_glide_emodel>
-61.5694

> <r_glide_XP_HBond>
-0.677161

> <i_i_glide_confnum>
1

> <i_i_glide_posenum>
11

> <r_i_glide_eff_state_penalty>
2.146

> <i_glide_XP_PoseRank>
1

$$$$
BACE_109.smi:1
                    3D
 Structure written by MMmdl.
 83 86  0  0  1  0            999 V2000
   21.0521   40.4350   -9.6467 C   0  0  0  0  0  0
   20.7554   38.9562   -9.3089 C   0  0  0  0  0  0
   19.7255   38.4153  -10.3197 C   0  0  0  0  0  0
   22.0598   38.1549   -9.4365 C   0  0  0  0  0  0
   20.1855   38.7968   -7.8793 C   0  0  0  0  0  0
   20.8388   39.6307   -6.8266 C   0  0  0  0  0  0
   20.4597   40.7858   -6.2167 C   0  0  0  0  0  0
   21.4754   41.0143   -5.2476 C   0  0  0  0  0  0
   22.4596   40.1437   -5.3810 N   0  0  0  0  0  0
   22.0527   39.2377   -6.3650 O   0  0  0  0  0  0
   21.6284   42.1426   -4.2510 C   0  0  0  0  0  0
   20.3175   42.9302   -4.0849 C   0  0  0  0  0  0
   21.9542   41.5780   -2.8510 C   0  0  0  0  0  0
   22.7393   43.0241   -4.7055 N   0  3  0  0  0  0
   22.5249   43.7684   -5.9785 C   0  0  0  0  0  0
   23.7988   44.4998   -6.4519 C   0  0  1  0  0  0
   23.5631   44.9107   -7.7831 O   0  0  0  0  0  0
   24.1757   45.7201   -5.5611 C   0  0  2  0  0  0
   23.6068   47.1093   -5.9545 C   0  0  0  0  0  0
   24.0974   48.2810   -5.1034 C   0  0  0  0  0  0
   24.2686   48.1655   -3.7055 C   0  0  0  0  0  0
   24.7876   49.2321   -2.9419 C   0  0  0  0  0  0
   25.0629   50.4621   -3.5873 C   0  0  0  0  0  0
   24.8867   50.5869   -4.9760 C   0  0  0  0  0  0
   24.4097   49.5023   -5.7327 C   0  0  0  0  0  0
   25.0155   48.9880   -1.6017 O   0  0  0  0  0  0
   25.8705   49.8632   -0.8638 C   0  0  0  0  0  0
   27.3286   49.8658   -1.3717 C   0  0  0  0  0  0
   28.0012   48.4845   -1.4011 C   0  0  0  0  0  0
   29.2905   48.5041   -2.2427 C   0  0  0  0  0  0
   29.8223   47.1974   -2.4085 O   0  0  0  0  0  0
   29.4493   46.4718   -3.5163 C   0  0  0  0  0  0
   28.2350   46.6381   -4.2272 C   0  0  0  0  0  0
   27.9609   45.7948   -5.3246 C   0  0  0  0  0  0
   28.9369   44.8523   -5.6997 C   0  0  0  0  0  0
   30.0876   44.6680   -5.0211 N   0  0  0  0  0  0
   30.3326   45.4742   -3.9662 C   0  0  0  0  0  0
   26.6570   45.8674   -6.0502 C   0  0  0  0  0  0
   26.5925   45.9684   -7.2730 O   0  0  0  0  0  0
   25.5967   45.7511   -5.2401 N   0  0  0  0  0  0
   24.6213   43.7801   -6.4774 H   0  0  0  0  0  0
   23.7445   45.5093   -4.5854 H   0  0  0  0  0  0
   21.3830   40.5440  -10.6791 H   0  0  0  0  0  0
   21.8441   40.8452   -9.0179 H   0  0  0  0  0  0
   20.1666   41.0574   -9.5158 H   0  0  0  0  0  0
   18.7894   38.9732  -10.2739 H   0  0  0  0  0  0
   19.4903   37.3706  -10.1246 H   0  0  0  0  0  0
   20.0916   38.4872  -11.3426 H   0  0  0  0  0  0
   22.4607   38.2447  -10.4407 H   0  0  0  0  0  0
   21.9093   37.0947   -9.2397 H   0  0  0  0  0  0
   22.8244   38.5196   -8.7544 H   0  0  0  0  0  0
   19.1285   39.0645   -7.8891 H   0  0  0  0  0  0
   20.2038   37.7502   -7.5796 H   0  0  0  0  0  0
   19.5623   41.3462   -6.4325 H   0  0  0  0  0  0
   19.5577   42.2931   -3.6434 H   0  0  0  0  0  0
   19.9198   43.3226   -5.0200 H   0  0  0  0  0  0
   20.4393   43.7500   -3.3869 H   0  0  0  0  0  0
   21.1513   40.9319   -2.4941 H   0  0  0  0  0  0
   22.0800   42.3739   -2.1156 H   0  0  0  0  0  0
   22.8601   40.9784   -2.8435 H   0  0  0  0  0  0
   22.9635   43.6783   -3.9684 H   0  0  0  0  0  0
   22.2161   43.0657   -6.7517 H   0  0  0  0  0  0
   21.7116   44.4849   -5.8643 H   0  0  0  0  0  0
   23.6479   44.1648   -8.3622 H   0  0  0  0  0  0
   23.8663   47.3238   -6.9929 H   0  0  0  0  0  0
   22.5158   47.0851   -5.9160 H   0  0  0  0  0  0
   24.0532   47.2372   -3.2016 H   0  0  0  0  0  0
   25.4392   51.3141   -3.0401 H   0  0  0  0  0  0
   25.1408   51.5166   -5.4626 H   0  0  0  0  0  0
   24.2995   49.6067   -6.8033 H   0  0  0  0  0  0
   25.4625   50.8749   -0.8489 H   0  0  0  0  0  0
   25.8617   49.5313    0.1741 H   0  0  0  0  0  0
   27.3760   50.3037   -2.3677 H   0  0  0  0  0  0
   27.9189   50.5320   -0.7470 H   0  0  0  0  0  0
   28.2173   48.1469   -0.3878 H   0  0  0  0  0  0
   27.3073   47.7513   -1.8093 H   0  0  0  0  0  0
   29.1287   48.9800   -3.2106 H   0  0  0  0  0  0
   30.0552   49.1067   -1.7438 H   0  0  0  0  0  0
   27.5076   47.3826   -3.9391 H   0  0  0  0  0  0
   28.7664   44.1793   -6.5272 H   0  0  0  0  0  0
   31.2666   45.3077   -3.4494 H   0  0  0  0  0  0
   25.8058   45.5716   -4.2653 H   0  0  0  0  0  0
   23.5358   42.4154   -4.8424 H   0  0  0  0  0  0
  1  2  1  0  0  0
  1 43  1  0  0  0
  1 44  1  0  0  0
  1 45  1  0  0  0
  2  3  1  0  0  0
  2  4  1  0  0  0
  2  5  1  0  0  0
  3 46  1  0  0  0
  3 47  1  0  0  0
  3 48  1  0  0  0
  4 49  1  0  0  0
  4 50  1  0  0  0
  4 51  1  0  0  0
  5  6  1  0  0  0
  5 52  1  0  0  0
  5 53  1  0  0  0
  6 10  1  0  0  0
  6  7  2  0  0  0
  7  8  1  0  0  0
  7 54  1  0  0  0
  8  9  2  0  0  0
  8 11  1  0  0  0
  9 10  1  0  0  0
 11 12  1  0  0  0
 11 13  1  0  0  0
 11 14  1  0  0  0
 12 55  1  0  0  0
 12 56  1  0  0  0
 12 57  1  0  0  0
 13 58  1  0  0  0
 13 59  1  0  0  0
 13 60  1  0  0  0
 14 15  1  0  0  0
 14 61  1  0  0  0
 14 83  1  0  0  0
 15 16  1  0  0  0
 15 62  1  0  0  0
 15 63  1  0  0  0
 16 41  1  0  0  0
 16 17  1  0  0  0
 16 18  1  0  0  0
 17 64  1  0  0  0
 18 42  1  0  0  0
 18 40  1  0  0  0
 18 19  1  0  0  0
 19 20  1  0  0  0
 19 65  1  0  0  0
 19 66  1  0  0  0
 20 25  1  0  0  0
 20 21  2  0  0  0
 21 22  1  0  0  0
 21 67  1  0  0  0
 22 23  2  0  0  0
 22 26  1  0  0  0
 23 24  1  0  0  0
 23 68  1  0  0  0
 24 25  2  0  0  0
 24 69  1  0  0  0
 25 70  1  0  0  0
 26 27  1  0  0  0
 27 28  1  0  0  0
 27 71  1  0  0  0
 27 72  1  0  0  0
 28 29  1  0  0  0
 28 73  1  0  0  0
 28 74  1  0  0  0
 29 30  1  0  0  0
 29 75  1  0  0  0
 29 76  1  0  0  0
 30 31  1  0  0  0
 30 77  1  0  0  0
 30 78  1  0  0  0
 31 32  1  0  0  0
 32 37  1  0  0  0
 32 33  2  0  0  0
 33 34  1  0  0  0
 33 79  1  0  0  0
 34 35  2  0  0  0
 34 38  1  0  0  0
 35 36  1  0  0  0
 35 80  1  0  0  0
 36 37  2  0  0  0
 37 81  1  0  0  0
 38 39  2  0  0  0
 38 40  1  0  0  0
 40 82  1  0  0  0
M  CHG  1  14   1
M  END
> <s_m_source_file>
BACE_109.smi

> <i_m_source_file_index>
1

> <i_lp_mmshare_version>
42013

> <i_f3d_flags>
0

> <s_epik_input>
W0NIM11DKFtDSDNdKShbQ0gzXSlbQ0gyXWMxW2NIXWMobm8xKUMoW0NIM10pKFtDSDNdKVtOSF1bQ0gyXVtDQEBIXShbT0hdKVtDQEhdKFtDSDJdMilbTkhdQyg9TyljKFtjSF1uW2NIXTMpW2NIXWMzT1tDSDJdW0NIMl1bQ0gyXVtDSDJdT2MoW2NIXWMyNClbY0hdW2NIXVtjSF00

> <s_epik_cmdline>
J2VwaWtfcHl0aG9uJywgJy1waCcsICc3LjAnLCAnLXRuJywgJzgnLCAnLW1hJywgJzIwMCcsICctaW1hZScsICc8aW5maWxlLm1hZT4nLCAnLW9tYWUnLCAnPG91dGZpbGUubWFlPic=

> <r_lp_tautomer_probability>
1

> <r_epik_Ionization_Penalty>
  0.2373

> <r_epik_Ionization_Penalty_Charging>
  0.2371

> <r_epik_Ionization_Penalty_Neutral>
  0.0002

> <r_epik_State_Penalty>
  0.2280

> <r_epik_Charging_Adjusted_Penalty>
0.465097

> <i_epik_Tot_Q>
1

> <i_epik_Tot_abs_Q>
1

> <s_lp_Force_Field>
OPLS_2005

> <r_lp_Energy>
29.2501

> <b_lp_Chiralities_Consistent>
1

> <s_lp_Variant>
BACE_109.smi:1-1

> <chiral flag>
1

> <version>
0

> <s_i_glide_gridfile>
second_dock_grid_2

> <i_i_glide_lignum>
46

> <i_i_glide_rotatable_bonds>
8

> <r_i_docking_score>
-4.78704

> <r_i_glide_ligand_efficiency>
-0.119676

> <r_i_glide_ligand_efficiency_sa>
-0.409286

> <r_i_glide_ligand_efficiency_ln>
-1.02093

> <r_glide_XP_GScore>
-5.01504

> <r_i_glide_gscore>
-5.01504

> <r_i_glide_evdw>
-42.1133

> <r_i_glide_ecoul>
-8.40433

> <r_i_glide_energy>
-50.5177

> <r_i_glide_einternal>
6.74474

> <r_i_glide_emodel>
-65.2593

> <r_glide_XP_HBond>
-0.626014

> <i_i_glide_confnum>
1

> <i_i_glide_posenum>
3

> <r_i_glide_eff_state_penalty>
0.228

> <i_glide_XP_PoseRank>
1

$$$$
