BACE_114.smi:1
                    3D
 Structure written by MMmdl.
 81 84  0  0  1  0            999 V2000
   15.1316   38.2972   -7.9489 C   0  0  0  0  0  0
   16.0972   39.4051   -7.5018 C   0  0  0  0  0  0
   15.3881   40.7594   -7.3961 C   0  0  0  0  0  0
   17.3296   39.5033   -8.3924 C   0  0  0  0  0  0
   18.6044   39.6720   -7.8099 C   0  0  0  0  0  0
   19.7722   39.7486   -8.6074 C   0  0  0  0  0  0
   19.6332   39.6194  -10.0112 C   0  0  0  0  0  0
   18.3657   39.4729  -10.6002 C   0  0  0  0  0  0
   17.2153   39.4246   -9.7965 C   0  0  0  0  0  0
   21.1567   39.8989   -7.9496 C   0  0  0  0  0  0
   21.1474   40.9544   -6.8181 C   0  0  0  0  0  0
   21.5297   38.5370   -7.3462 C   0  0  0  0  0  0
   22.1967   40.2313   -8.9403 N   0  0  0  0  0  0
   22.2959   41.6138   -9.4256 C   0  0  0  0  0  0
   23.0393   41.6657  -10.7760 C   0  0  1  0  0  0
   22.0600   41.4704  -11.7784 O   0  0  0  0  0  0
   23.8358   42.9863  -11.0205 C   0  0  2  0  0  0
   23.3296   43.8703  -12.1919 C   0  0  0  0  0  0
   24.1118   45.1648  -12.3771 C   0  0  0  0  0  0
   24.9595   45.3443  -13.4924 C   0  0  0  0  0  0
   25.7020   46.5331  -13.6555 C   0  0  0  0  0  0
   25.5553   47.5683  -12.7029 C   0  0  0  0  0  0
   24.7065   47.3983  -11.5925 C   0  0  0  0  0  0
   23.9897   46.1990  -11.4273 C   0  0  0  0  0  0
   26.5234   46.6460  -14.7572 O   0  0  0  0  0  0
   27.7945   47.2713  -14.5660 C   0  0  0  0  0  0
   28.9013   46.3040  -15.0171 C   0  0  0  0  0  0
   28.8225   44.9787  -14.2494 C   0  0  0  0  0  0
   29.9106   43.9455  -14.6068 C   0  0  0  0  0  0
   29.6599   42.6005  -14.0853 N   0  0  0  0  0  0
   29.2922   42.5161  -12.7355 C   0  0  0  0  0  0
   27.9567   42.7276  -12.3302 C   0  0  0  0  0  0
   27.6477   42.7561  -10.9558 C   0  0  0  0  0  0
   28.7052   42.5500  -10.0487 C   0  0  0  0  0  0
   29.9748   42.2696  -10.4194 N   0  0  0  0  0  0
   30.2547   42.2554  -11.7384 C   0  0  0  0  0  0
   26.2721   43.0917  -10.4604 C   0  0  0  0  0  0
   26.1206   43.6972   -9.4010 O   0  0  0  0  0  0
   25.2526   42.6758  -11.2275 N   0  0  0  0  0  0
   23.7239   40.8159  -10.8382 H   0  0  0  0  0  0
   23.7375   43.5983  -10.1230 H   0  0  0  0  0  0
   15.6593   37.3499   -8.0489 H   0  0  0  0  0  0
   14.6438   38.5205   -8.8968 H   0  0  0  0  0  0
   14.3481   38.1512   -7.2039 H   0  0  0  0  0  0
   16.4336   39.1309   -6.5001 H   0  0  0  0  0  0
   16.0073   41.4900   -6.8731 H   0  0  0  0  0  0
   14.4602   40.6591   -6.8394 H   0  0  0  0  0  0
   15.1339   41.1582   -8.3784 H   0  0  0  0  0  0
   18.6750   39.7319   -6.7342 H   0  0  0  0  0  0
   20.4950   39.6280  -10.6603 H   0  0  0  0  0  0
   18.2782   39.3853  -11.6724 H   0  0  0  0  0  0
   16.2506   39.3079  -10.2668 H   0  0  0  0  0  0
   20.5251   40.6502   -5.9770 H   0  0  0  0  0  0
   20.7696   41.9167   -7.1652 H   0  0  0  0  0  0
   22.1495   41.1141   -6.4193 H   0  0  0  0  0  0
   20.7759   38.1928   -6.6374 H   0  0  0  0  0  0
   22.4755   38.5816   -6.8100 H   0  0  0  0  0  0
   21.6193   37.7757   -8.1219 H   0  0  0  0  0  0
   23.0960   39.8037   -8.7399 H   0  0  0  0  0  0
   21.3103   42.0718   -9.5216 H   0  0  0  0  0  0
   22.8362   42.2007   -8.6819 H   0  0  0  0  0  0
   22.5360   41.1395  -12.5336 H   0  0  0  0  0  0
   23.3658   43.3048  -13.1244 H   0  0  0  0  0  0
   22.2823   44.1306  -12.0337 H   0  0  0  0  0  0
   25.0574   44.5556  -14.2226 H   0  0  0  0  0  0
   26.0841   48.5025  -12.8190 H   0  0  0  0  0  0
   24.6048   48.1902  -10.8653 H   0  0  0  0  0  0
   23.3439   46.0756  -10.5700 H   0  0  0  0  0  0
   27.8305   48.1896  -15.1523 H   0  0  0  0  0  0
   27.9912   47.5479  -13.5298 H   0  0  0  0  0  0
   28.8181   46.1208  -16.0871 H   0  0  0  0  0  0
   29.8758   46.7659  -14.8574 H   0  0  0  0  0  0
   28.8624   45.1958  -13.1808 H   0  0  0  0  0  0
   27.8414   44.5500  -14.4407 H   0  0  0  0  0  0
   29.9885   43.8590  -15.6907 H   0  0  0  0  0  0
   30.8835   44.2909  -14.2558 H   0  0  0  0  0  0
   30.3905   41.9514  -14.3520 H   0  0  0  0  0  0
   27.1901   42.9133  -13.0681 H   0  0  0  0  0  0
   28.5199   42.5922   -8.9868 H   0  0  0  0  0  0
   31.2858   42.0706  -12.0031 H   0  0  0  0  0  0
   25.4648   42.1190  -12.0415 H   0  0  0  0  0  0
  1  2  1  0  0  0
  1 42  1  0  0  0
  1 43  1  0  0  0
  1 44  1  0  0  0
  2  3  1  0  0  0
  2  4  1  0  0  0
  2 45  1  0  0  0
  3 46  1  0  0  0
  3 47  1  0  0  0
  3 48  1  0  0  0
  4  9  1  0  0  0
  4  5  2  0  0  0
  5  6  1  0  0  0
  5 49  1  0  0  0
  6  7  2  0  0  0
  6 10  1  0  0  0
  7  8  1  0  0  0
  7 50  1  0  0  0
  8  9  2  0  0  0
  8 51  1  0  0  0
  9 52  1  0  0  0
 10 11  1  0  0  0
 10 12  1  0  0  0
 10 13  1  0  0  0
 11 53  1  0  0  0
 11 54  1  0  0  0
 11 55  1  0  0  0
 12 56  1  0  0  0
 12 57  1  0  0  0
 12 58  1  0  0  0
 13 14  1  0  0  0
 13 59  1  0  0  0
 14 15  1  0  0  0
 14 60  1  0  0  0
 14 61  1  0  0  0
 15 40  1  0  0  0
 15 16  1  0  0  0
 15 17  1  0  0  0
 16 62  1  0  0  0
 17 41  1  0  0  0
 17 39  1  0  0  0
 17 18  1  0  0  0
 18 19  1  0  0  0
 18 63  1  0  0  0
 18 64  1  0  0  0
 19 24  1  0  0  0
 19 20  2  0  0  0
 20 21  1  0  0  0
 20 65  1  0  0  0
 21 22  2  0  0  0
 21 25  1  0  0  0
 22 23  1  0  0  0
 22 66  1  0  0  0
 23 24  2  0  0  0
 23 67  1  0  0  0
 24 68  1  0  0  0
 25 26  1  0  0  0
 26 27  1  0  0  0
 26 69  1  0  0  0
 26 70  1  0  0  0
 27 28  1  0  0  0
 27 71  1  0  0  0
 27 72  1  0  0  0
 28 29  1  0  0  0
 28 73  1  0  0  0
 28 74  1  0  0  0
 29 30  1  0  0  0
 29 75  1  0  0  0
 29 76  1  0  0  0
 30 31  1  0  0  0
 30 77  1  0  0  0
 31 36  1  0  0  0
 31 32  2  0  0  0
 32 33  1  0  0  0
 32 78  1  0  0  0
 33 34  2  0  0  0
 33 37  1  0  0  0
 34 35  1  0  0  0
 34 79  1  0  0  0
 35 36  2  0  0  0
 36 80  1  0  0  0
 37 38  2  0  0  0
 37 39  1  0  0  0
 39 81  1  0  0  0
M  END
> <s_m_source_file>
BACE_114.smi

> <i_m_source_file_index>
1

> <i_lp_mmshare_version>
42013

> <i_f3d_flags>
0

> <s_epik_input>
W0NIM11bQ0hdKFtDSDNdKWMxW2NIXWMoW2NIXVtjSF1bY0hdMSlDKFtDSDNdKShbQ0gzXSlbTkhdW0NIMl1bQ0BASF0oW09IXSlbQ0BIXShbQ0gyXTIpW05IXUMoPU8pYyhbY0hdbltjSF0zKVtjSF1jM1tOSF1bQ0gyXVtDSDJdW0NIMl1bQ0gyXU9jKFtjSF1jMjQpW2NIXVtjSF1bY0hdNA==

> <s_epik_cmdline>
J2VwaWtfcHl0aG9uJywgJy1waCcsICc3LjAnLCAnLXRuJywgJzgnLCAnLW1hJywgJzIwMCcsICctaW1hZScsICc8aW5maWxlLm1hZT4nLCAnLW9tYWUnLCAnPG91dGZpbGUubWFlPic=

> <r_lp_tautomer_probability>
1

> <r_epik_Ionization_Penalty>
  2.0179

> <r_epik_Ionization_Penalty_Charging>
  0.0000

> <r_epik_Ionization_Penalty_Neutral>
  2.0179

> <r_epik_State_Penalty>
  2.1460

> <r_epik_Charging_Adjusted_Penalty>
2.14597

> <i_epik_Tot_Q>
0

> <i_epik_Tot_abs_Q>
0

> <s_lp_Force_Field>
OPLS_2005

> <r_lp_Energy>
48.3405

> <b_lp_Chiralities_Consistent>
1

> <s_lp_Variant>
BACE_114.smi:1-2

> <chiral flag>
1

> <version>
0

> <s_i_glide_gridfile>
second_dock_grid_2

> <i_i_glide_lignum>
51

> <i_i_glide_rotatable_bonds>
7

> <r_i_docking_score>
-1.84743

> <r_i_glide_ligand_efficiency>
-0.0473701

> <r_i_glide_ligand_efficiency_sa>
-0.160642

> <r_i_glide_ligand_efficiency_ln>
-0.396142

> <r_glide_XP_GScore>
-3.99343

> <r_i_glide_gscore>
-3.99343

> <r_i_glide_evdw>
-39.0884

> <r_i_glide_ecoul>
-8.919

> <r_i_glide_energy>
-48.0074

> <r_i_glide_einternal>
6.95517

> <r_i_glide_emodel>
-56.0512

> <r_glide_XP_HBond>
-1.12291

> <i_i_glide_confnum>
1

> <i_i_glide_posenum>
8

> <r_i_glide_eff_state_penalty>
2.146

> <i_glide_XP_PoseRank>
1

$$$$
BACE_117.smi:1
                    3D
 Structure written by MMmdl.
 92 95  0  0  1  0            999 V2000
   20.0131   42.4362   -1.6263 C   0  0  0  0  0  0
   21.2517   42.1057   -2.2325 O   0  0  0  0  0  0
   21.1290   41.8022   -3.6137 C   0  0  0  0  0  0
   21.2484   43.0490   -4.4784 C   0  0  0  0  0  0
   22.4383   43.8033   -4.4595 C   0  0  0  0  0  0
   22.5657   44.9588   -5.2575 C   0  0  0  0  0  0
   21.4703   45.3629   -6.0553 C   0  0  0  0  0  0
   20.2885   44.5962   -6.1049 C   0  0  0  0  0  0
   20.1764   43.4376   -5.3051 C   0  0  0  0  0  0
   19.1743   45.0292   -7.0071 C   0  0  0  0  0  0
   18.8549   46.2040   -7.0864 O   0  0  0  0  0  0
   18.6451   44.0571   -7.7572 N   0  0  0  0  0  0
   17.6919   44.2494   -8.8430 C   0  0  1  0  0  0
   18.3658   44.1855  -10.2307 C   0  0  0  0  0  0
   19.4841   45.2008  -10.4283 C   0  0  0  0  0  0
   20.8362   44.8075  -10.3240 C   0  0  0  0  0  0
   21.8814   45.7407  -10.4868 C   0  0  0  0  0  0
   21.5532   47.0876  -10.7782 C   0  0  0  0  0  0
   20.2065   47.4839  -10.8907 C   0  0  0  0  0  0
   19.1731   46.5450  -10.7156 C   0  0  0  0  0  0
   23.1679   45.2611  -10.3542 O   0  0  0  0  0  0
   24.2595   46.1744  -10.2306 C   0  0  0  0  0  0
   24.2726   46.8764   -8.8586 C   0  0  0  0  0  0
   24.2962   45.8887   -7.6822 C   0  0  0  0  0  0
   24.1166   46.5883   -6.3213 C   0  0  0  0  0  0
   23.7872   45.6518   -5.2501 N   0  0  0  0  0  0
   16.6346   43.1528   -8.7518 C   0  0  2  0  0  0
   15.3843   43.7092   -8.3862 O   0  0  0  0  0  0
   16.9823   42.0402   -7.7382 C   0  0  0  0  0  0
   15.7696   41.2729   -7.3549 N   0  3  0  0  0  0
   15.5340   39.9316   -7.9668 C   0  0  0  0  0  0
   14.6787   39.0272   -7.0476 C   0  0  0  0  0  0
   14.8181   40.0878   -9.3307 C   0  0  0  0  0  0
   16.9013   39.2850   -8.1589 C   0  0  0  0  0  0
   18.2002   39.7917   -7.8509 C   0  0  0  0  0  0
   19.0529   38.7879   -8.2175 C   0  0  0  0  0  0
   20.5458   38.6450   -8.1562 C   0  0  0  0  0  0
   21.3902   39.9524   -8.2428 C   0  0  0  0  0  0
   21.5795   40.3172   -9.7314 C   0  0  0  0  0  0
   20.6498   41.1178   -7.5500 C   0  0  0  0  0  0
   22.7867   39.7866   -7.6000 C   0  0  0  0  0  0
   18.3468   37.7348   -8.7001 O   0  0  0  0  0  0
   16.9863   38.0569   -8.6584 N   0  0  0  0  0  0
   17.1591   45.1937   -8.7305 H   0  0  0  0  0  0
   16.5250   42.6923   -9.7353 H   0  0  0  0  0  0
   20.1716   42.6568   -0.5706 H   0  0  0  0  0  0
   19.3048   41.6091   -1.6917 H   0  0  0  0  0  0
   19.5666   43.3179   -2.0880 H   0  0  0  0  0  0
   20.1714   41.3126   -3.7989 H   0  0  0  0  0  0
   21.9105   41.1020   -3.9134 H   0  0  0  0  0  0
   23.2553   43.4758   -3.8337 H   0  0  0  0  0  0
   21.5269   46.2441   -6.6771 H   0  0  0  0  0  0
   19.2715   42.8481   -5.3161 H   0  0  0  0  0  0
   19.0045   43.1231   -7.6209 H   0  0  0  0  0  0
   18.7600   43.1836  -10.4008 H   0  0  0  0  0  0
   17.6141   44.3412  -11.0046 H   0  0  0  0  0  0
   21.0801   43.7790  -10.1024 H   0  0  0  0  0  0
   22.3148   47.8399  -10.9210 H   0  0  0  0  0  0
   19.9660   48.5135  -11.1110 H   0  0  0  0  0  0
   18.1441   46.8619  -10.8001 H   0  0  0  0  0  0
   25.1771   45.5960  -10.3385 H   0  0  0  0  0  0
   24.2750   46.8932  -11.0498 H   0  0  0  0  0  0
   25.1372   47.5368   -8.7921 H   0  0  0  0  0  0
   23.3979   47.5213   -8.7750 H   0  0  0  0  0  0
   23.5269   45.1284   -7.8171 H   0  0  0  0  0  0
   25.2469   45.3562   -7.7087 H   0  0  0  0  0  0
   25.0367   47.1108   -6.0596 H   0  0  0  0  0  0
   23.3494   47.3605   -6.3779 H   0  0  0  0  0  0
   24.5507   45.2768   -4.7056 H   0  0  0  0  0  0
   15.2862   43.6363   -7.4492 H   0  0  0  0  0  0
   17.6985   41.3586   -8.1957 H   0  0  0  0  0  0
   17.4616   42.4718   -6.8604 H   0  0  0  0  0  0
   15.7921   41.1481   -6.3529 H   0  0  0  0  0  0
   13.6570   39.3923   -6.9417 H   0  0  0  0  0  0
   15.1023   38.9478   -6.0455 H   0  0  0  0  0  0
   14.6064   38.0158   -7.4499 H   0  0  0  0  0  0
   13.8159   40.5031   -9.2283 H   0  0  0  0  0  0
   14.6951   39.1263   -9.8308 H   0  0  0  0  0  0
   15.3738   40.7423  -10.0040 H   0  0  0  0  0  0
   18.4754   40.7454   -7.4252 H   0  0  0  0  0  0
   20.7750   38.1446   -7.2143 H   0  0  0  0  0  0
   20.8689   37.9421   -8.9254 H   0  0  0  0  0  0
   22.1325   39.5459  -10.2691 H   0  0  0  0  0  0
   22.1325   41.2500   -9.8504 H   0  0  0  0  0  0
   20.6213   40.4430  -10.2373 H   0  0  0  0  0  0
   20.5121   40.9373   -6.4840 H   0  0  0  0  0  0
   19.6626   41.2829   -7.9834 H   0  0  0  0  0  0
   21.2027   42.0534   -7.6443 H   0  0  0  0  0  0
   22.7300   39.6184   -6.5242 H   0  0  0  0  0  0
   23.3986   40.6779   -7.7450 H   0  0  0  0  0  0
   23.3308   38.9485   -8.0376 H   0  0  0  0  0  0
   14.9707   41.8490   -7.5780 H   0  0  0  0  0  0
  1  2  1  0  0  0
  1 46  1  0  0  0
  1 47  1  0  0  0
  1 48  1  0  0  0
  2  3  1  0  0  0
  3  4  1  0  0  0
  3 49  1  0  0  0
  3 50  1  0  0  0
  4  9  1  0  0  0
  4  5  2  0  0  0
  5  6  1  0  0  0
  5 51  1  0  0  0
  6 26  1  0  0  0
  6  7  2  0  0  0
  7  8  1  0  0  0
  7 52  1  0  0  0
  8  9  2  0  0  0
  8 10  1  0  0  0
  9 53  1  0  0  0
 10 11  2  0  0  0
 10 12  1  0  0  0
 12 13  1  0  0  0
 12 54  1  0  0  0
 13 44  1  0  0  0
 13 14  1  0  0  0
 13 27  1  0  0  0
 14 15  1  0  0  0
 14 55  1  0  0  0
 14 56  1  0  0  0
 15 20  1  0  0  0
 15 16  2  0  0  0
 16 17  1  0  0  0
 16 57  1  0  0  0
 17 18  2  0  0  0
 17 21  1  0  0  0
 18 19  1  0  0  0
 18 58  1  0  0  0
 19 20  2  0  0  0
 19 59  1  0  0  0
 20 60  1  0  0  0
 21 22  1  0  0  0
 22 23  1  0  0  0
 22 61  1  0  0  0
 22 62  1  0  0  0
 23 24  1  0  0  0
 23 63  1  0  0  0
 23 64  1  0  0  0
 24 25  1  0  0  0
 24 65  1  0  0  0
 24 66  1  0  0  0
 25 26  1  0  0  0
 25 67  1  0  0  0
 25 68  1  0  0  0
 26 69  1  0  0  0
 27 45  1  0  0  0
 27 28  1  0  0  0
 27 29  1  0  0  0
 28 70  1  0  0  0
 29 30  1  0  0  0
 29 71  1  0  0  0
 29 72  1  0  0  0
 30 31  1  0  0  0
 30 73  1  0  0  0
 30 92  1  0  0  0
 31 32  1  0  0  0
 31 33  1  0  0  0
 31 34  1  0  0  0
 32 74  1  0  0  0
 32 75  1  0  0  0
 32 76  1  0  0  0
 33 77  1  0  0  0
 33 78  1  0  0  0
 33 79  1  0  0  0
 34 43  2  0  0  0
 34 35  1  0  0  0
 35 36  2  0  0  0
 35 80  1  0  0  0
 36 37  1  0  0  0
 36 42  1  0  0  0
 37 38  1  0  0  0
 37 81  1  0  0  0
 37 82  1  0  0  0
 38 39  1  0  0  0
 38 40  1  0  0  0
 38 41  1  0  0  0
 39 83  1  0  0  0
 39 84  1  0  0  0
 39 85  1  0  0  0
 40 86  1  0  0  0
 40 87  1  0  0  0
 40 88  1  0  0  0
 41 89  1  0  0  0
 41 90  1  0  0  0
 41 91  1  0  0  0
 42 43  1  0  0  0
M  CHG  1  30   1
M  END
> <s_m_source_file>
BACE_117.smi

> <i_m_source_file_index>
1

> <i_lp_mmshare_version>
42013

> <i_f3d_flags>
0

> <s_epik_input>
W0NIM11DKFtDSDNdKShbQ0gzXSlbQ0gyXWMob24xKVtjSF1jMUMoW0NIM10pKFtDSDNdKVtOSF1bQ0gyXVtDQEBIXShbT0hdKVtDQEBIXShbTkhdQyg9TyljKFtjSF0yKVtjSF1jKFtjSF1jMjMpW0NIMl1PW0NIM10pW0NIMl1jNFtjSF1jKFtjSF1bY0hdW2NIXTQpT1tDSDJdW0NIMl1bQ0gyXVtDSDJdW05IXTM=

> <s_epik_cmdline>
J2VwaWtfcHl0aG9uJywgJy1waCcsICc3LjAnLCAnLXRuJywgJzgnLCAnLW1hJywgJzIwMCcsICctaW1hZScsICc8aW5maWxlLm1hZT4nLCAnLW9tYWUnLCAnPG91dGZpbGUubWFlPic=

> <r_lp_tautomer_probability>
1

> <r_epik_Ionization_Penalty>
  0.2346

> <r_epik_Ionization_Penalty_Charging>
  0.2343

> <r_epik_Ionization_Penalty_Neutral>
  0.0003

> <r_epik_State_Penalty>
  0.2251

> <r_epik_Charging_Adjusted_Penalty>
0.459382

> <i_epik_Tot_Q>
1

> <i_epik_Tot_abs_Q>
1

> <s_lp_Force_Field>
OPLS_2005

> <r_lp_Energy>
36.2247

> <b_lp_Chiralities_Consistent>
1

> <s_lp_Variant>
BACE_117.smi:1-1

> <chiral flag>
1

> <version>
0

> <s_i_glide_gridfile>
second_dock_grid_2

> <i_i_glide_lignum>
52

> <i_i_glide_rotatable_bonds>
10

> <r_i_docking_score>
-6.40887

> <r_i_glide_ligand_efficiency>
-0.149044

> <r_i_glide_ligand_efficiency_sa>
-0.522159

> <r_i_glide_ligand_efficiency_ln>
-1.34606

> <r_glide_XP_GScore>
-6.63397

> <r_i_glide_gscore>
-6.63397

> <r_i_glide_evdw>
-40.9503

> <r_i_glide_ecoul>
-16.2976

> <r_i_glide_energy>
-57.2479

> <r_i_glide_einternal>
8.57044

> <r_i_glide_emodel>
-81.6987

> <r_glide_XP_HBond>
-0.852993

> <i_i_glide_confnum>
1

> <i_i_glide_posenum>
35

> <r_i_glide_eff_state_penalty>
0.2251

> <i_glide_XP_PoseRank>
1

$$$$
