BACE_75.smi:1
                    3D
 Structure written by MMmdl.
 91 94  0  0  1  0            999 V2000
   34.4161   44.5806  -11.0469 C   0  0  0  0  0  0
   34.5968   43.3443  -11.7176 O   0  0  0  0  0  0
   34.2041   43.3911  -13.0807 C   0  0  0  0  0  0
   32.6930   43.4132  -13.2279 C   0  0  0  0  0  0
   32.0957   43.9852  -14.3714 C   0  0  0  0  0  0
   30.6921   44.0155  -14.5000 C   0  0  0  0  0  0
   29.8896   43.4445  -13.4884 C   0  0  0  0  0  0
   30.4698   42.8989  -12.3178 C   0  0  0  0  0  0
   31.8795   42.8812  -12.2039 C   0  0  0  0  0  0
   29.6105   42.3266  -11.2185 C   0  0  0  0  0  0
   30.0516   41.4680  -10.4529 O   0  0  0  0  0  0
   28.3773   42.8601  -11.1161 N   0  0  0  0  0  0
   27.3400   42.5646  -10.1208 C   0  0  1  0  0  0
   27.0153   43.8519   -9.2903 C   0  0  0  0  0  0
   26.8428   45.2255  -10.0129 C   0  0  2  0  0  0
   27.1095   46.3711   -9.0132 C   0  0  0  0  0  0
   25.4581   45.4099  -10.6909 C   0  0  0  0  0  0
   25.3898   46.5284  -11.7509 C   0  0  0  0  0  0
   26.3012   46.2308  -12.7974 O   0  0  0  0  0  0
   26.2479   47.1218  -13.9028 C   0  0  0  0  0  0
   27.4021   46.8815  -14.8608 C   0  0  0  0  0  0
   28.5402   46.2409  -14.5401 C   0  0  0  0  0  0
   29.7115   46.0016  -15.4775 C   0  0  0  0  0  0
   30.1048   44.6017  -15.6308 N   0  0  0  0  0  0
   26.1288   41.8401  -10.7840 C   0  0  2  0  0  0
   25.6118   42.6483  -11.8258 O   0  0  0  0  0  0
   24.9555   41.5539   -9.8172 C   0  0  0  0  0  0
   23.9347   40.6846  -10.4476 N   0  3  0  0  0  0
   22.5416   40.9297  -10.0439 C   0  0  0  0  0  0
   21.8136   42.0761  -10.7043 C   0  0  0  0  0  0
   21.4598   40.6519  -11.0602 C   0  0  0  0  0  0
   22.2264   40.6428   -8.5828 C   0  0  0  0  0  0
   22.1937   41.6839   -7.6277 C   0  0  0  0  0  0
   21.9064   41.4377   -6.2605 C   0  0  0  0  0  0
   21.6481   40.0986   -5.8698 C   0  0  0  0  0  0
   21.6773   39.0536   -6.8122 C   0  0  0  0  0  0
   21.9650   39.3233   -8.1614 C   0  0  0  0  0  0
   21.8842   42.6150   -5.2567 C   0  0  0  0  0  0
   23.2932   43.2442   -5.1552 C   0  0  0  0  0  0
   20.9039   43.7448   -5.6599 C   0  0  0  0  0  0
   21.4502   42.1068   -3.8621 C   0  0  0  0  0  0
   27.7410   41.8547   -9.3949 H   0  0  0  0  0  0
   27.6167   45.3123  -10.7736 H   0  0  0  0  0  0
   26.4505   40.8900  -11.2058 H   0  0  0  0  0  0
   34.7328   44.4814  -10.0087 H   0  0  0  0  0  0
   33.3685   44.8849  -11.0487 H   0  0  0  0  0  0
   35.0121   45.3720  -11.5034 H   0  0  0  0  0  0
   34.6165   42.5329  -13.6139 H   0  0  0  0  0  0
   34.6085   44.2865  -13.5557 H   0  0  0  0  0  0
   32.7127   44.4090  -15.1510 H   0  0  0  0  0  0
   28.8171   43.4439  -13.6205 H   0  0  0  0  0  0
   32.3505   42.4640  -11.3251 H   0  0  0  0  0  0
   28.1351   43.5671  -11.7955 H   0  0  0  0  0  0
   27.8622   43.9607   -8.6109 H   0  0  0  0  0  0
   26.1708   43.6848   -8.6217 H   0  0  0  0  0  0
   26.3844   46.3691   -8.1985 H   0  0  0  0  0  0
   27.0662   47.3489   -9.4917 H   0  0  0  0  0  0
   28.1023   46.2885   -8.5694 H   0  0  0  0  0  0
   25.1527   44.4938  -11.1856 H   0  0  0  0  0  0
   24.6986   45.5887   -9.9287 H   0  0  0  0  0  0
   25.6117   47.5035  -11.3170 H   0  0  0  0  0  0
   24.3763   46.5813  -12.1516 H   0  0  0  0  0  0
   26.2853   48.1611  -13.5731 H   0  0  0  0  0  0
   25.3086   46.9773  -14.4381 H   0  0  0  0  0  0
   27.2768   47.2763  -15.8586 H   0  0  0  0  0  0
   28.6736   45.8907  -13.5286 H   0  0  0  0  0  0
   30.5656   46.5771  -15.1188 H   0  0  0  0  0  0
   29.4675   46.3943  -16.4650 H   0  0  0  0  0  0
   30.6806   44.4975  -16.4540 H   0  0  0  0  0  0
   25.1213   42.0979  -12.4169 H   0  0  0  0  0  0
   24.5031   42.4899   -9.4872 H   0  0  0  0  0  0
   25.3129   41.0411   -8.9248 H   0  0  0  0  0  0
   24.1587   39.7275  -10.2154 H   0  0  0  0  0  0
   21.1011   42.6370  -10.0994 H   0  0  0  0  0  0
   22.3591   42.6609  -11.4448 H   0  0  0  0  0  0
   21.7689   40.2845  -12.0388 H   0  0  0  0  0  0
   20.5109   40.2606  -10.6933 H   0  0  0  0  0  0
   22.3937   42.6907   -7.9628 H   0  0  0  0  0  0
   21.4221   39.8329   -4.8493 H   0  0  0  0  0  0
   21.4779   38.0397   -6.4975 H   0  0  0  0  0  0
   21.9836   38.5108   -8.8732 H   0  0  0  0  0  0
   24.0393   42.5407   -4.7858 H   0  0  0  0  0  0
   23.3029   44.0956   -4.4733 H   0  0  0  0  0  0
   23.6379   43.6041   -6.1257 H   0  0  0  0  0  0
   19.8735   43.3912   -5.7169 H   0  0  0  0  0  0
   21.1643   44.1882   -6.6221 H   0  0  0  0  0  0
   20.9128   44.5573   -4.9320 H   0  0  0  0  0  0
   20.4628   41.6445   -3.8978 H   0  0  0  0  0  0
   21.3994   42.9209   -3.1378 H   0  0  0  0  0  0
   22.1401   41.3686   -3.4530 H   0  0  0  0  0  0
   23.9995   40.7919  -11.4497 H   0  0  0  0  0  0
  1  2  1  0  0  0
  1 45  1  0  0  0
  1 46  1  0  0  0
  1 47  1  0  0  0
  2  3  1  0  0  0
  3  4  1  0  0  0
  3 48  1  0  0  0
  3 49  1  0  0  0
  4  9  1  0  0  0
  4  5  2  0  0  0
  5  6  1  0  0  0
  5 50  1  0  0  0
  6 24  1  0  0  0
  6  7  2  0  0  0
  7  8  1  0  0  0
  7 51  1  0  0  0
  8  9  2  0  0  0
  8 10  1  0  0  0
  9 52  1  0  0  0
 10 11  2  0  0  0
 10 12  1  0  0  0
 12 13  1  0  0  0
 12 53  1  0  0  0
 13 42  1  0  0  0
 13 14  1  0  0  0
 13 25  1  0  0  0
 14 15  1  0  0  0
 14 54  1  0  0  0
 14 55  1  0  0  0
 15 43  1  0  0  0
 15 16  1  0  0  0
 15 17  1  0  0  0
 16 56  1  0  0  0
 16 57  1  0  0  0
 16 58  1  0  0  0
 17 18  1  0  0  0
 17 59  1  0  0  0
 17 60  1  0  0  0
 18 19  1  0  0  0
 18 61  1  0  0  0
 18 62  1  0  0  0
 19 20  1  0  0  0
 20 21  1  0  0  0
 20 63  1  0  0  0
 20 64  1  0  0  0
 21 22  2  0  0  0
 21 65  1  0  0  0
 22 23  1  0  0  0
 22 66  1  0  0  0
 23 24  1  0  0  0
 23 67  1  0  0  0
 23 68  1  0  0  0
 24 69  1  0  0  0
 25 44  1  0  0  0
 25 26  1  0  0  0
 25 27  1  0  0  0
 26 70  1  0  0  0
 27 28  1  0  0  0
 27 71  1  0  0  0
 27 72  1  0  0  0
 28 29  1  0  0  0
 28 73  1  0  0  0
 28 91  1  0  0  0
 29 31  1  0  0  0
 29 30  1  0  0  0
 29 32  1  0  0  0
 30 31  1  0  0  0
 30 74  1  0  0  0
 30 75  1  0  0  0
 31 76  1  0  0  0
 31 77  1  0  0  0
 32 37  1  0  0  0
 32 33  2  0  0  0
 33 34  1  0  0  0
 33 78  1  0  0  0
 34 35  2  0  0  0
 34 38  1  0  0  0
 35 36  1  0  0  0
 35 79  1  0  0  0
 36 37  2  0  0  0
 36 80  1  0  0  0
 37 81  1  0  0  0
 38 39  1  0  0  0
 38 40  1  0  0  0
 38 41  1  0  0  0
 39 82  1  0  0  0
 39 83  1  0  0  0
 39 84  1  0  0  0
 40 85  1  0  0  0
 40 86  1  0  0  0
 40 87  1  0  0  0
 41 88  1  0  0  0
 41 89  1  0  0  0
 41 90  1  0  0  0
M  CHG  1  28   1
M  END
> <s_m_source_file>
BACE_75.smi

> <i_m_source_file_index>
1

> <i_lp_mmshare_version>
42013

> <i_f3d_flags>
0

> <s_epik_input>
W2NIXTFbY0hdW2NIXWMoQyhbQ0gzXSkoW0NIM10pW0NIM10pW2NIXWMxQzIoW0NIMl1bQ0gyXTIpW05IXVtDSDJdW0NAQEhdKFtPSF0pW0NAQEhdKFtOSF1DKD1PKWMoW2NIXTMpW2NIXWMoW2NIXWMzNClbQ0gyXU9bQ0gzXSlbQ0gyXVtDQEhdKFtDSDNdKVtDSDJdW0NIMl1PW0NIMl0vW0NIXT1bQ0hdL1tDSDJdW05IXTQ=

> <s_epik_cmdline>
J2VwaWtfcHl0aG9uJywgJy1waCcsICc3LjAnLCAnLXRuJywgJzgnLCAnLW1hJywgJzIwMCcsICctaW1hZScsICc8aW5maWxlLm1hZT4nLCAnLW9tYWUnLCAnPG91dGZpbGUubWFlPic=

> <r_epik_Ionization_Penalty>
  0.4669

> <r_epik_Ionization_Penalty_Charging>
  0.4668

> <r_epik_Ionization_Penalty_Neutral>
  0.0001

> <r_epik_State_Penalty>
  0.4707

> <r_epik_Charging_Adjusted_Penalty>
0.937497

> <i_epik_Tot_Q>
1

> <i_epik_Tot_abs_Q>
1

> <s_lp_Force_Field>
OPLS_2005

> <r_lp_Energy>
37.8696

> <b_lp_Chiralities_Consistent>
1

> <s_lp_Variant>
BACE_75.smi:1-2

> <chiral flag>
1

> <version>
0

> <s_i_glide_gridfile>
second_dock_grid_2

> <i_i_glide_lignum>
31

> <i_i_glide_rotatable_bonds>
9

> <r_i_docking_score>
-6.37677

> <r_i_glide_ligand_efficiency>
-0.155531

> <r_i_glide_ligand_efficiency_sa>
-0.536305

> <r_i_glide_ligand_efficiency_ln>
-1.35285

> <r_glide_XP_GScore>
-6.84747

> <r_i_glide_gscore>
-6.84747

> <r_i_glide_evdw>
-30.3144

> <r_i_glide_ecoul>
-17.1597

> <r_i_glide_energy>
-47.4741

> <r_i_glide_einternal>
7.4048

> <r_i_glide_emodel>
-68.6334

> <r_glide_XP_HBond>
-0.212465

> <i_i_glide_confnum>
1

> <i_i_glide_posenum>
4

> <r_i_glide_eff_state_penalty>
0.4707

> <i_glide_XP_PoseRank>
1

$$$$
BACE_78.smi:1
                    3D
 Structure written by MMmdl.
 85 87  0  0  1  0            999 V2000
   23.6488   46.1144   -6.0281 C   0  0  0  0  0  0
   23.9481   44.6312   -5.7449 C   0  0  2  0  0  0
   24.0906   43.7912   -7.0297 C   0  0  0  0  0  0
   25.3782   44.0537   -7.8365 C   0  0  0  0  0  0
   25.4243   43.2385   -9.1422 C   0  0  0  0  0  0
   24.4787   43.7901  -10.2241 C   0  0  0  0  0  0
   24.0424   42.7332  -11.2529 C   0  0  0  0  0  0
   22.8049   43.1386  -12.0814 C   0  0  0  0  0  0
   21.4670   42.9574  -11.3404 C   0  0  0  0  0  0
   21.3482   43.9825  -10.3696 O   0  0  0  0  0  0
   20.2938   43.9326   -9.4941 C   0  0  0  0  0  0
   20.4590   44.6222   -8.2811 C   0  0  0  0  0  0
   19.4497   44.6175   -7.2984 C   0  0  0  0  0  0
   18.2210   43.9838   -7.5694 C   0  0  0  0  0  0
   18.0352   43.3218   -8.7968 C   0  0  0  0  0  0
   19.0709   43.2699   -9.7491 C   0  0  0  0  0  0
   19.6586   45.3364   -6.0041 C   0  0  0  0  0  0
   18.8643   46.2018   -5.6402 O   0  0  0  0  0  0
   20.7115   44.9944   -5.2401 N   0  0  0  0  0  0
   21.4922   43.7535   -5.2425 C   0  0  1  0  0  0
   22.9462   43.9970   -4.7501 C   0  0  0  0  0  0
   20.7376   42.6860   -4.4020 C   0  0  2  0  0  0
   21.0472   42.8289   -3.0300 O   0  0  0  0  0  0
   21.0933   41.2435   -4.8122 C   0  0  0  0  0  0
   20.4599   40.9023   -6.1000 N   0  3  0  0  0  0
   20.7871   39.5650   -6.6225 C   0  0  0  0  0  0
   19.9456   39.2694   -7.8447 C   0  0  0  0  0  0
   18.6299   38.7775   -7.7084 C   0  0  0  0  0  0
   17.8654   38.5678   -8.8710 C   0  0  0  0  0  0
   16.4319   38.0655   -8.7722 C   0  0  0  0  0  0
   15.3464   39.1398   -8.4475 C   0  0  0  0  0  0
   14.8579   38.9567   -6.9994 C   0  0  0  0  0  0
   14.1509   38.9501   -9.3949 C   0  0  0  0  0  0
   15.8488   40.5864   -8.6014 C   0  0  0  0  0  0
   18.4597   38.8347  -10.1225 C   0  0  0  0  0  0
   19.7227   39.2885  -10.2630 N   0  0  0  0  0  0
   20.4454   39.4957   -9.1441 C   0  0  0  0  0  0
   24.9162   44.6058   -5.2427 H   0  0  0  0  0  0
   21.5462   43.3757   -6.2585 H   0  0  0  0  0  0
   19.6603   42.8174   -4.4996 H   0  0  0  0  0  0
   22.7299   46.2421   -6.5977 H   0  0  0  0  0  0
   24.4525   46.5793   -6.5982 H   0  0  0  0  0  0
   23.5484   46.6777   -5.1005 H   0  0  0  0  0  0
   24.0599   42.7327   -6.7752 H   0  0  0  0  0  0
   23.2173   43.9578   -7.6543 H   0  0  0  0  0  0
   25.4855   45.1129   -8.0716 H   0  0  0  0  0  0
   26.2400   43.7890   -7.2213 H   0  0  0  0  0  0
   26.4416   43.2202   -9.5363 H   0  0  0  0  0  0
   25.1764   42.2010   -8.9158 H   0  0  0  0  0  0
   23.6007   44.2083   -9.7468 H   0  0  0  0  0  0
   24.9494   44.6336  -10.7321 H   0  0  0  0  0  0
   24.8795   42.5458  -11.9273 H   0  0  0  0  0  0
   23.8381   41.7799  -10.7627 H   0  0  0  0  0  0
   22.9018   44.1649  -12.4370 H   0  0  0  0  0  0
   22.7754   42.5256  -12.9814 H   0  0  0  0  0  0
   20.6379   43.0302  -12.0398 H   0  0  0  0  0  0
   21.4184   41.9712  -10.8750 H   0  0  0  0  0  0
   21.3818   45.1511   -8.1025 H   0  0  0  0  0  0
   17.4201   43.9988   -6.8418 H   0  0  0  0  0  0
   17.0869   42.8582   -9.0112 H   0  0  0  0  0  0
   18.8950   42.7453  -10.6763 H   0  0  0  0  0  0
   20.8128   45.5289   -4.3834 H   0  0  0  0  0  0
   23.3771   43.0442   -4.4445 H   0  0  0  0  0  0
   22.9222   44.5917   -3.8361 H   0  0  0  0  0  0
   20.8580   43.7197   -2.7638 H   0  0  0  0  0  0
   22.1717   41.1030   -4.8726 H   0  0  0  0  0  0
   20.7223   40.5415   -4.0634 H   0  0  0  0  0  0
   19.4547   40.9503   -5.9526 H   0  0  0  0  0  0
   21.8502   39.5030   -6.8648 H   0  0  0  0  0  0
   20.5855   38.8122   -5.8632 H   0  0  0  0  0  0
   18.2041   38.5905   -6.7320 H   0  0  0  0  0  0
   16.2024   37.5779   -9.7206 H   0  0  0  0  0  0
   16.4046   37.2589   -8.0407 H   0  0  0  0  0  0
   14.0700   39.6662   -6.7425 H   0  0  0  0  0  0
   15.6677   39.0997   -6.2840 H   0  0  0  0  0  0
   14.4603   37.9551   -6.8400 H   0  0  0  0  0  0
   13.6890   37.9755   -9.2397 H   0  0  0  0  0  0
   14.4609   39.0262  -10.4376 H   0  0  0  0  0  0
   13.3743   39.6992   -9.2379 H   0  0  0  0  0  0
   15.0501   41.3026   -8.4057 H   0  0  0  0  0  0
   16.2137   40.7721   -9.6119 H   0  0  0  0  0  0
   16.6500   40.8095   -7.8970 H   0  0  0  0  0  0
   17.9055   38.6857  -11.0365 H   0  0  0  0  0  0
   21.4475   39.8716   -9.2923 H   0  0  0  0  0  0
   20.7112   41.5896   -6.7950 H   0  0  0  0  0  0
  1  2  1  0  0  0
  1 41  1  0  0  0
  1 42  1  0  0  0
  1 43  1  0  0  0
  2 38  1  0  0  0
  2 21  1  0  0  0
  2  3  1  0  0  0
  3  4  1  0  0  0
  3 44  1  0  0  0
  3 45  1  0  0  0
  4  5  1  0  0  0
  4 46  1  0  0  0
  4 47  1  0  0  0
  5  6  1  0  0  0
  5 48  1  0  0  0
  5 49  1  0  0  0
  6  7  1  0  0  0
  6 50  1  0  0  0
  6 51  1  0  0  0
  7  8  1  0  0  0
  7 52  1  0  0  0
  7 53  1  0  0  0
  8  9  1  0  0  0
  8 54  1  0  0  0
  8 55  1  0  0  0
  9 10  1  0  0  0
  9 56  1  0  0  0
  9 57  1  0  0  0
 10 11  1  0  0  0
 11 16  1  0  0  0
 11 12  2  0  0  0
 12 13  1  0  0  0
 12 58  1  0  0  0
 13 14  2  0  0  0
 13 17  1  0  0  0
 14 15  1  0  0  0
 14 59  1  0  0  0
 15 16  2  0  0  0
 15 60  1  0  0  0
 16 61  1  0  0  0
 17 18  2  0  0  0
 17 19  1  0  0  0
 19 20  1  0  0  0
 19 62  1  0  0  0
 20 39  1  0  0  0
 20 21  1  0  0  0
 20 22  1  0  0  0
 21 63  1  0  0  0
 21 64  1  0  0  0
 22 40  1  0  0  0
 22 23  1  0  0  0
 22 24  1  0  0  0
 23 65  1  0  0  0
 24 25  1  0  0  0
 24 66  1  0  0  0
 24 67  1  0  0  0
 25 26  1  0  0  0
 25 68  1  0  0  0
 25 85  1  0  0  0
 26 27  1  0  0  0
 26 69  1  0  0  0
 26 70  1  0  0  0
 27 37  1  0  0  0
 27 28  2  0  0  0
 28 29  1  0  0  0
 28 71  1  0  0  0
 29 30  1  0  0  0
 29 35  2  0  0  0
 30 31  1  0  0  0
 30 72  1  0  0  0
 30 73  1  0  0  0
 31 32  1  0  0  0
 31 33  1  0  0  0
 31 34  1  0  0  0
 32 74  1  0  0  0
 32 75  1  0  0  0
 32 76  1  0  0  0
 33 77  1  0  0  0
 33 78  1  0  0  0
 33 79  1  0  0  0
 34 80  1  0  0  0
 34 81  1  0  0  0
 34 82  1  0  0  0
 35 36  1  0  0  0
 35 83  1  0  0  0
 36 37  2  0  0  0
 37 84  1  0  0  0
M  CHG  1  25   1
M  END
> <s_m_source_file>
BACE_78.smi

> <i_m_source_file_index>
1

> <i_lp_mmshare_version>
42013

> <i_f3d_flags>
0

> <s_epik_input>
TzFbQ0gyXVtDSDJdW0NIMl1bQ0gyXVtDSDJdW0NIMl1bQ0gyXVtDQEBIXShbQ0gzXSlbQ0gyXVtDQEhdKFtOSF1DKD1PKWMoW2NIXWMxMilbY0hdW2NIXVtjSF0yKVtDQEhdKFtPSF0pW0NIMl1bTkhdW0NIMl1jM1tjSF1jKFtDSDJdQyhbQ0gzXSkoW0NIM10pW0NIM10pW2NIXW5bY0hdMw==

> <s_epik_cmdline>
J2VwaWtfcHl0aG9uJywgJy1waCcsICc3LjAnLCAnLXRuJywgJzgnLCAnLW1hJywgJzIwMCcsICctaW1hZScsICc8aW5maWxlLm1hZT4nLCAnLW9tYWUnLCAnPG91dGZpbGUubWFlPic=

> <r_lp_tautomer_probability>
1

> <r_epik_Ionization_Penalty>
  0.0463

> <r_epik_Ionization_Penalty_Charging>
  0.0356

> <r_epik_Ionization_Penalty_Neutral>
  0.0108

> <r_epik_State_Penalty>
  0.0312

> <r_epik_Charging_Adjusted_Penalty>
0.0667178

> <i_epik_Tot_Q>
1

> <i_epik_Tot_abs_Q>
1

> <s_lp_Force_Field>
OPLS_2005

> <r_lp_Energy>
39.9753

> <b_lp_Chiralities_Consistent>
1

> <s_lp_Variant>
BACE_78.smi:1-1

> <chiral flag>
1

> <version>
0

> <s_i_glide_gridfile>
second_dock_grid_2

> <i_i_glide_lignum>
32

> <i_i_glide_rotatable_bonds>
8

> <r_i_docking_score>
-2.58763

> <r_i_glide_ligand_efficiency>
-0.069936

> <r_i_glide_ligand_efficiency_sa>
-0.233042

> <r_i_glide_ligand_efficiency_ln>
-0.561197

> <r_glide_XP_GScore>
-2.61883

> <r_i_glide_gscore>
-2.61883

> <r_i_glide_evdw>
-38.817

> <r_i_glide_ecoul>
-14.7837

> <r_i_glide_energy>
-53.6006

> <r_i_glide_einternal>
3.89465

> <r_i_glide_emodel>
-75.3226

> <r_glide_XP_HBond>
-1.87265

> <i_i_glide_confnum>
1

> <i_i_glide_posenum>
1

> <r_i_glide_eff_state_penalty>
0.0312

> <i_glide_XP_PoseRank>
1

$$$$
