BACE_84.smi:1
                    3D
 Structure written by MMmdl.
 86 88  0  0  1  0            999 V2000
   21.7885   38.7175   -8.6145 C   0  0  0  0  0  0
   22.2144   40.0718   -8.0245 C   0  0  2  0  0  0
   20.9988   40.8666   -7.4910 C   0  0  0  0  0  0
   21.3663   42.0778   -6.6119 C   0  0  0  0  0  0
   20.1763   43.0167   -6.3495 C   0  0  0  0  0  0
   20.0029   44.0833   -7.4476 C   0  0  0  0  0  0
   18.7418   44.9513   -7.2748 C   0  0  0  0  0  0
   17.4303   44.2707   -7.7168 C   0  0  0  0  0  0
   17.0596   44.5022   -9.1979 C   0  0  0  0  0  0
   18.0661   44.0546  -10.1044 O   0  0  0  0  0  0
   18.2548   42.7021  -10.3012 C   0  0  0  0  0  0
   19.4234   42.2865  -10.9682 C   0  0  0  0  0  0
   19.6942   40.9064  -11.0802 C   0  0  0  0  0  0
   18.7241   39.9988  -10.6048 C   0  0  0  0  0  0
   17.5676   40.5094   -9.9851 C   0  0  0  0  0  0
   17.3372   41.8285   -9.8199 N   0  0  0  0  0  0
   20.9522   40.3930  -11.7203 C   0  0  0  0  0  0
   20.8711   39.5865  -12.6442 O   0  0  0  0  0  0
   22.1532   40.7689  -11.2335 N   0  0  0  0  0  0
   22.5086   41.6737  -10.1322 C   0  0  1  0  0  0
   23.1546   40.8759   -8.9645 C   0  0  0  0  0  0
   23.4499   42.7919  -10.6571 C   0  0  2  0  0  0
   23.2064   42.9556  -12.0424 O   0  0  0  0  0  0
   24.9491   42.4571  -10.5148 C   0  0  0  0  0  0
   25.7583   43.6609  -10.3042 N   0  0  0  0  0  0
   26.6086   44.0922  -11.4283 C   0  0  0  0  0  0
   25.8528   43.7788  -12.7331 C   0  0  0  0  0  0
   26.8416   45.6197  -11.3731 C   0  0  0  0  0  0
   27.9310   43.3404  -11.4374 C   0  0  0  0  0  0
   29.1520   43.6902  -12.0830 C   0  0  0  0  0  0
   30.0096   42.6841  -11.7425 C   0  0  0  0  0  0
   31.4478   42.4236  -12.0663 C   0  0  0  0  0  0
   31.9052   42.8354  -13.4898 C   0  0  0  0  0  0
   31.3205   41.8800  -14.5489 C   0  0  0  0  0  0
   33.4429   42.7588  -13.5529 C   0  0  0  0  0  0
   31.4665   44.2785  -13.8130 C   0  0  0  0  0  0
   29.3756   41.7763  -10.9587 O   0  0  0  0  0  0
   28.0561   42.1995  -10.7711 N   0  0  0  0  0  0
   22.8201   39.8180   -7.1537 H   0  0  0  0  0  0
   21.6335   42.1864   -9.7499 H   0  0  0  0  0  0
   23.2279   43.7270  -10.1407 H   0  0  0  0  0  0
   21.0788   38.8288   -9.4296 H   0  0  0  0  0  0
   21.3081   38.0991   -7.8559 H   0  0  0  0  0  0
   22.6466   38.1605   -8.9914 H   0  0  0  0  0  0
   20.3591   41.1771   -8.3142 H   0  0  0  0  0  0
   20.3751   40.1998   -6.8945 H   0  0  0  0  0  0
   21.7481   41.7062   -5.6603 H   0  0  0  0  0  0
   22.1787   42.6550   -7.0525 H   0  0  0  0  0  0
   19.2658   42.4300   -6.2266 H   0  0  0  0  0  0
   20.3334   43.5278   -5.3991 H   0  0  0  0  0  0
   20.8767   44.7355   -7.4289 H   0  0  0  0  0  0
   20.0107   43.6183   -8.4303 H   0  0  0  0  0  0
   18.6612   45.2413   -6.2265 H   0  0  0  0  0  0
   18.8640   45.8845   -7.8259 H   0  0  0  0  0  0
   17.4540   43.2071   -7.4826 H   0  0  0  0  0  0
   16.6184   44.6782   -7.1138 H   0  0  0  0  0  0
   16.0925   44.0552   -9.4323 H   0  0  0  0  0  0
   16.9308   45.5716   -9.3667 H   0  0  0  0  0  0
   20.1160   43.0224  -11.3439 H   0  0  0  0  0  0
   18.8682   38.9318  -10.6936 H   0  0  0  0  0  0
   16.8133   39.8395   -9.5993 H   0  0  0  0  0  0
   22.9470   40.3573  -11.7024 H   0  0  0  0  0  0
   23.7076   41.5675   -8.3301 H   0  0  0  0  0  0
   23.9246   40.2135   -9.3627 H   0  0  0  0  0  0
   23.4847   42.1719  -12.4911 H   0  0  0  0  0  0
   25.0873   41.7852   -9.6697 H   0  0  0  0  0  0
   25.2905   41.9210  -11.3998 H   0  0  0  0  0  0
   26.3042   43.5860   -9.4522 H   0  0  0  0  0  0
   26.4373   44.0632  -13.6091 H   0  0  0  0  0  0
   24.9043   44.3151  -12.7835 H   0  0  0  0  0  0
   25.6298   42.7144  -12.8223 H   0  0  0  0  0  0
   27.3572   45.9726  -12.2669 H   0  0  0  0  0  0
   27.4511   45.9158  -10.5192 H   0  0  0  0  0  0
   25.8982   46.1629  -11.3102 H   0  0  0  0  0  0
   29.3723   44.5507  -12.6965 H   0  0  0  0  0  0
   32.0575   42.9511  -11.3316 H   0  0  0  0  0  0
   31.6595   41.3655  -11.9069 H   0  0  0  0  0  0
   31.6955   42.1177  -15.5450 H   0  0  0  0  0  0
   30.2331   41.9414  -14.5938 H   0  0  0  0  0  0
   31.5843   40.8430  -14.3384 H   0  0  0  0  0  0
   33.7993   41.7518  -13.3334 H   0  0  0  0  0  0
   33.9058   43.4351  -12.8333 H   0  0  0  0  0  0
   33.8160   43.0295  -14.5413 H   0  0  0  0  0  0
   31.8450   44.5984  -14.7844 H   0  0  0  0  0  0
   31.8394   44.9822  -13.0680 H   0  0  0  0  0  0
   30.3810   44.3762  -13.8443 H   0  0  0  0  0  0
  1  2  1  0  0  0
  1 42  1  0  0  0
  1 43  1  0  0  0
  1 44  1  0  0  0
  2 39  1  0  0  0
  2 21  1  0  0  0
  2  3  1  0  0  0
  3  4  1  0  0  0
  3 45  1  0  0  0
  3 46  1  0  0  0
  4  5  1  0  0  0
  4 47  1  0  0  0
  4 48  1  0  0  0
  5  6  1  0  0  0
  5 49  1  0  0  0
  5 50  1  0  0  0
  6  7  1  0  0  0
  6 51  1  0  0  0
  6 52  1  0  0  0
  7  8  1  0  0  0
  7 53  1  0  0  0
  7 54  1  0  0  0
  8  9  1  0  0  0
  8 55  1  0  0  0
  8 56  1  0  0  0
  9 10  1  0  0  0
  9 57  1  0  0  0
  9 58  1  0  0  0
 10 11  1  0  0  0
 11 16  1  0  0  0
 11 12  2  0  0  0
 12 13  1  0  0  0
 12 59  1  0  0  0
 13 14  2  0  0  0
 13 17  1  0  0  0
 14 15  1  0  0  0
 14 60  1  0  0  0
 15 16  2  0  0  0
 15 61  1  0  0  0
 17 18  2  0  0  0
 17 19  1  0  0  0
 19 20  1  0  0  0
 19 62  1  0  0  0
 20 40  1  0  0  0
 20 21  1  0  0  0
 20 22  1  0  0  0
 21 63  1  0  0  0
 21 64  1  0  0  0
 22 41  1  0  0  0
 22 23  1  0  0  0
 22 24  1  0  0  0
 23 65  1  0  0  0
 24 25  1  0  0  0
 24 66  1  0  0  0
 24 67  1  0  0  0
 25 26  1  0  0  0
 25 68  1  0  0  0
 26 27  1  0  0  0
 26 28  1  0  0  0
 26 29  1  0  0  0
 27 69  1  0  0  0
 27 70  1  0  0  0
 27 71  1  0  0  0
 28 72  1  0  0  0
 28 73  1  0  0  0
 28 74  1  0  0  0
 29 38  2  0  0  0
 29 30  1  0  0  0
 30 31  2  0  0  0
 30 75  1  0  0  0
 31 32  1  0  0  0
 31 37  1  0  0  0
 32 33  1  0  0  0
 32 76  1  0  0  0
 32 77  1  0  0  0
 33 34  1  0  0  0
 33 35  1  0  0  0
 33 36  1  0  0  0
 34 78  1  0  0  0
 34 79  1  0  0  0
 34 80  1  0  0  0
 35 81  1  0  0  0
 35 82  1  0  0  0
 35 83  1  0  0  0
 36 84  1  0  0  0
 36 85  1  0  0  0
 36 86  1  0  0  0
 37 38  1  0  0  0
M  END
> <s_m_source_file>
BACE_84.smi

> <i_m_source_file_index>
1

> <i_lp_mmshare_version>
42013

> <i_f3d_flags>
0

> <s_epik_input>
TzFbQ0gyXVtDSDJdW0NIMl1bQ0gyXVtDSDJdW0NIMl1bQ0gyXVtDQEBIXShbQ0gzXSlbQ0gyXVtDQEhdKFtOSF1DKD1PKWMoW2NIXWMxMilbY0hdW2NIXW4yKVtDQEhdKFtPSF0pW0NIMl1bTkhdQyhbQ0gzXSkoW0NIM10pYzNbY0hdYyhvbjMpW0NIMl1DKFtDSDNdKShbQ0gzXSlbQ0gzXQ==

> <s_epik_cmdline>
J2VwaWtfcHl0aG9uJywgJy1waCcsICc3LjAnLCAnLXRuJywgJzgnLCAnLW1hJywgJzIwMCcsICctaW1hZScsICc8aW5maWxlLm1hZT4nLCAnLW9tYWUnLCAnPG91dGZpbGUubWFlPic=

> <r_lp_tautomer_probability>
1

> <r_epik_Ionization_Penalty>
  0.7037

> <r_epik_Ionization_Penalty_Charging>
  0.0000

> <r_epik_Ionization_Penalty_Neutral>
  0.7037

> <r_epik_State_Penalty>
  0.7267

> <r_epik_Charging_Adjusted_Penalty>
0.726688

> <i_epik_Tot_Q>
0

> <i_epik_Tot_abs_Q>
0

> <s_lp_Force_Field>
OPLS_2005

> <r_lp_Energy>
37.0409

> <b_lp_Chiralities_Consistent>
1

> <s_lp_Variant>
BACE_84.smi:1-2

> <chiral flag>
1

> <version>
0

> <s_i_glide_gridfile>
second_dock_grid_2

> <i_i_glide_lignum>
41

> <i_i_glide_rotatable_bonds>
8

> <r_i_docking_score>
-3.10923

> <r_i_glide_ligand_efficiency>
-0.0818218

> <r_i_glide_ligand_efficiency_sa>
-0.275083

> <r_i_glide_ligand_efficiency_ln>
-0.670441

> <r_glide_XP_GScore>
-3.83593

> <r_i_glide_gscore>
-3.83593

> <r_i_glide_evdw>
-34.9556

> <r_i_glide_ecoul>
-6.66696

> <r_i_glide_energy>
-41.6226

> <r_i_glide_einternal>
1.54456

> <r_i_glide_emodel>
-58.4835

> <r_glide_XP_HBond>
-0.993705

> <i_i_glide_confnum>
1

> <i_i_glide_posenum>
7

> <r_i_glide_eff_state_penalty>
0.7267

> <i_glide_XP_PoseRank>
1

$$$$
BACE_102.smi:1
                    3D
 Structure written by MMmdl.
 83 87  0  0  1  0            999 V2000
   21.9037   40.6364   -4.0000 C   0  0  0  0  0  0
   21.9160   41.8037   -4.9653 C   0  0  0  0  0  0
   20.8504   41.9961   -5.8629 C   0  0  0  0  0  0
   20.8914   43.0973   -6.7452 C   0  0  0  0  0  0
   22.0349   43.9218   -6.7174 C   0  0  0  0  0  0
   23.0531   43.6566   -5.7736 C   0  0  0  0  0  0
   24.1948   44.4561   -5.6397 N   0  0  0  0  0  0
   24.2459   45.7873   -6.2294 C   0  0  0  0  0  0
   23.2775   46.7621   -5.5869 C   0  0  0  0  0  0
   22.3211   47.4182   -6.2638 C   0  0  0  0  0  0
   21.3131   48.3697   -5.6473 C   0  0  0  0  0  0
   19.9969   47.8241   -5.6401 O   0  0  0  0  0  0
   19.3831   47.4806   -6.8267 C   0  0  0  0  0  0
   18.4583   46.4197   -6.7570 C   0  0  0  0  0  0
   17.7531   45.9828   -7.8985 C   0  0  0  0  0  0
   16.7313   44.8558   -7.7990 C   0  0  0  0  0  0
   17.2443   43.3934   -7.8855 C   0  0  2  0  0  0
   18.5361   43.1231   -7.2416 N   0  0  0  0  0  0
   19.7689   43.3935   -7.7012 C   0  0  0  0  0  0
   19.9916   43.9335   -8.7847 O   0  0  0  0  0  0
   17.0656   42.7120   -9.2692 C   0  0  2  0  0  0
   17.2860   43.6280  -10.3236 O   0  0  0  0  0  0
   15.6383   42.1440   -9.4759 C   0  0  0  0  0  0
   15.3081   41.0160   -8.5943 N   0  0  0  0  0  0
   15.8119   39.7007   -8.9965 C   0  0  0  0  0  0
   15.2490   39.0836  -10.2495 C   0  0  0  0  0  0
   14.8433   38.5462   -8.8984 C   0  0  0  0  0  0
   17.2294   39.4404   -8.5801 C   0  0  0  0  0  0
   18.2901   39.5156   -9.5101 C   0  0  0  0  0  0
   19.6395   39.3620   -9.1105 C   0  0  0  0  0  0
   19.8964   39.0580   -7.7508 C   0  0  0  0  0  0
   18.8426   38.9248   -6.8298 C   0  0  0  0  0  0
   17.5158   39.1240   -7.2404 C   0  0  0  0  0  0
   20.7908   39.5973  -10.1087 C   0  0  0  0  0  0
   21.1400   41.0949  -10.1264 C   0  0  0  0  0  0
   22.0615   38.8204   -9.7118 C   0  0  0  0  0  0
   20.4117   39.1782  -11.5480 C   0  0  0  0  0  0
   17.9771   46.6237   -9.1322 C   0  0  0  0  0  0
   18.8946   47.6867   -9.2179 C   0  0  0  0  0  0
   19.5915   48.1243   -8.0748 C   0  0  0  0  0  0
   20.4317   49.1791   -8.2021 F   0  0  0  0  0  0
   22.9859   42.6244   -4.9080 N   0  0  0  0  0  0
   16.5783   42.8361   -7.2266 H   0  0  0  0  0  0
   17.8157   41.9428   -9.3899 H   0  0  0  0  0  0
   22.8227   40.5919   -3.4131 H   0  0  0  0  0  0
   21.8031   39.6982   -4.5440 H   0  0  0  0  0  0
   21.0630   40.7261   -3.3126 H   0  0  0  0  0  0
   20.0183   41.3094   -5.8596 H   0  0  0  0  0  0
   22.0999   44.7553   -7.3990 H   0  0  0  0  0  0
   24.7116   44.3126   -4.7758 H   0  0  0  0  0  0
   25.2562   46.1757   -6.0961 H   0  0  0  0  0  0
   24.0819   45.7295   -7.3055 H   0  0  0  0  0  0
   23.3807   46.9057   -4.5209 H   0  0  0  0  0  0
   22.2283   47.2563   -7.3283 H   0  0  0  0  0  0
   21.3538   49.3496   -6.1187 H   0  0  0  0  0  0
   21.5922   48.5430   -4.6078 H   0  0  0  0  0  0
   18.2942   45.9262   -5.8112 H   0  0  0  0  0  0
   15.9368   45.0259   -8.5259 H   0  0  0  0  0  0
   16.2385   44.9501   -6.8401 H   0  0  0  0  0  0
   18.4812   42.6464   -6.3486 H   0  0  0  0  0  0
   17.6501   43.1505  -11.0522 H   0  0  0  0  0  0
   15.5008   41.8487  -10.5166 H   0  0  0  0  0  0
   14.9195   42.9451   -9.3033 H   0  0  0  0  0  0
   14.3034   40.9503   -8.4397 H   0  0  0  0  0  0
   14.4873   39.6264  -10.8075 H   0  0  0  0  0  0
   15.9437   38.5020  -10.8400 H   0  0  0  0  0  0
   15.2566   37.5855   -8.5958 H   0  0  0  0  0  0
   13.8224   38.7448   -8.5747 H   0  0  0  0  0  0
   18.0462   39.7666  -10.5294 H   0  0  0  0  0  0
   20.8994   38.9398   -7.3755 H   0  0  0  0  0  0
   19.0487   38.6954   -5.7954 H   0  0  0  0  0  0
   16.7134   39.0468   -6.5185 H   0  0  0  0  0  0
   20.2827   41.6970  -10.4247 H   0  0  0  0  0  0
   21.9503   41.3103  -10.8256 H   0  0  0  0  0  0
   21.4642   41.4341   -9.1430 H   0  0  0  0  0  0
   21.8734   37.7507   -9.6330 H   0  0  0  0  0  0
   22.4777   39.1577   -8.7636 H   0  0  0  0  0  0
   22.8595   38.9729  -10.4399 H   0  0  0  0  0  0
   20.0578   38.1499  -11.5837 H   0  0  0  0  0  0
   21.2674   39.2555  -12.2202 H   0  0  0  0  0  0
   19.6330   39.8082  -11.9768 H   0  0  0  0  0  0
   17.4479   46.3000  -10.0161 H   0  0  0  0  0  0
   19.0606   48.1761  -10.1661 H   0  0  0  0  0  0
  1  2  1  0  0  0
  1 45  1  0  0  0
  1 46  1  0  0  0
  1 47  1  0  0  0
  2 42  1  0  0  0
  2  3  2  0  0  0
  3  4  1  0  0  0
  3 48  1  0  0  0
  4 19  1  0  0  0
  4  5  2  0  0  0
  5  6  1  0  0  0
  5 49  1  0  0  0
  6  7  1  0  0  0
  6 42  2  0  0  0
  7  8  1  0  0  0
  7 50  1  0  0  0
  8  9  1  0  0  0
  8 51  1  0  0  0
  8 52  1  0  0  0
  9 10  2  0  0  0
  9 53  1  0  0  0
 10 11  1  0  0  0
 10 54  1  0  0  0
 11 12  1  0  0  0
 11 55  1  0  0  0
 11 56  1  0  0  0
 12 13  1  0  0  0
 13 40  1  0  0  0
 13 14  2  0  0  0
 14 15  1  0  0  0
 14 57  1  0  0  0
 15 16  1  0  0  0
 15 38  2  0  0  0
 16 17  1  0  0  0
 16 58  1  0  0  0
 16 59  1  0  0  0
 17 43  1  0  0  0
 17 18  1  0  0  0
 17 21  1  0  0  0
 18 19  1  0  0  0
 18 60  1  0  0  0
 19 20  2  0  0  0
 21 44  1  0  0  0
 21 22  1  0  0  0
 21 23  1  0  0  0
 22 61  1  0  0  0
 23 24  1  0  0  0
 23 62  1  0  0  0
 23 63  1  0  0  0
 24 25  1  0  0  0
 24 64  1  0  0  0
 25 27  1  0  0  0
 25 26  1  0  0  0
 25 28  1  0  0  0
 26 27  1  0  0  0
 26 65  1  0  0  0
 26 66  1  0  0  0
 27 67  1  0  0  0
 27 68  1  0  0  0
 28 33  1  0  0  0
 28 29  2  0  0  0
 29 30  1  0  0  0
 29 69  1  0  0  0
 30 31  2  0  0  0
 30 34  1  0  0  0
 31 32  1  0  0  0
 31 70  1  0  0  0
 32 33  2  0  0  0
 32 71  1  0  0  0
 33 72  1  0  0  0
 34 35  1  0  0  0
 34 36  1  0  0  0
 34 37  1  0  0  0
 35 73  1  0  0  0
 35 74  1  0  0  0
 35 75  1  0  0  0
 36 76  1  0  0  0
 36 77  1  0  0  0
 36 78  1  0  0  0
 37 79  1  0  0  0
 37 80  1  0  0  0
 37 81  1  0  0  0
 38 39  1  0  0  0
 38 82  1  0  0  0
 39 40  2  0  0  0
 39 83  1  0  0  0
 40 41  1  0  0  0
M  END
> <s_m_source_file>
BACE_102.smi

> <i_m_source_file_index>
1

> <i_lp_mmshare_version>
42013

> <i_f3d_flags>
0

> <s_epik_input>
YzEyW2NIXWMoW0NIM10pbmMoW2NIXTEpW05IXVtDSDJdL1tDSF09W0NIXS9bQ0gyXU9jM1tjSF1jKFtjSF1bY0hdYzNGKVtDSDJdW0NASF0oW05IXUMyPU8pW0NASF0oW09IXSlbQ0gyXVtOSF1DNChbQ0gyXVtDSDJdNCljNVtjSF1jKEMoW0NIM10pKFtDSDNdKVtDSDNdKVtjSF1bY0hdW2NIXTU=

> <s_epik_cmdline>
J2VwaWtfcHl0aG9uJywgJy1waCcsICc3LjAnLCAnLXRuJywgJzgnLCAnLW1hJywgJzIwMCcsICctaW1hZScsICc8aW5maWxlLm1hZT4nLCAnLW9tYWUnLCAnPG91dGZpbGUubWFlPic=

> <r_lp_tautomer_probability>
1

> <r_epik_Ionization_Penalty>
  0.3206

> <r_epik_Ionization_Penalty_Charging>
  0.0000

> <r_epik_Ionization_Penalty_Neutral>
  0.3206

> <r_epik_State_Penalty>
  0.3306

> <r_epik_Charging_Adjusted_Penalty>
0.330633

> <i_epik_Tot_Q>
0

> <i_epik_Tot_abs_Q>
0

> <s_lp_Force_Field>
OPLS_2005

> <r_lp_Energy>
38.0869

> <b_lp_Chiralities_Consistent>
1

> <s_lp_Variant>
BACE_102.smi:1-1

> <chiral flag>
1

> <version>
0

> <s_i_glide_gridfile>
second_dock_grid_2

> <i_i_glide_lignum>
42

> <i_i_glide_rotatable_bonds>
7

> <r_i_docking_score>
-3.39995

> <r_i_glide_ligand_efficiency>
-0.0809513

> <r_i_glide_ligand_efficiency_sa>
-0.281389

> <r_i_glide_ligand_efficiency_ln>
-0.717643

> <r_glide_XP_GScore>
-3.73055

> <r_i_glide_gscore>
-3.73055

> <r_i_glide_evdw>
-41.9225

> <r_i_glide_ecoul>
-7.07254

> <r_i_glide_energy>
-48.995

> <r_i_glide_einternal>
5.24227

> <r_i_glide_emodel>
-68.0365

> <r_glide_XP_HBond>
-1.92405

> <i_i_glide_confnum>
1

> <i_i_glide_posenum>
5

> <r_i_glide_eff_state_penalty>
0.3306

> <i_glide_XP_PoseRank>
1

$$$$
