BACE_83.smi:1
                    3D
 Structure written by MMmdl.
 96 99  0  0  1  0            999 V2000
   19.8347   39.0887   -6.7199 C   0  0  0  0  0  0
   19.2245   38.9358   -8.1262 C   0  0  2  0  0  0
   18.1623   37.8023   -8.1386 C   0  0  0  0  0  0
   17.0292   38.0133   -9.1665 C   0  0  0  0  0  0
   15.9691   39.0346   -8.7006 C   0  0  0  0  0  0
   15.1855   39.6870   -9.8565 C   0  0  0  0  0  0
   14.4421   40.9895   -9.4792 C   0  0  0  0  0  0
   15.2340   42.2976   -9.7199 C   0  0  0  0  0  0
   16.2365   42.6847   -8.6098 C   0  0  0  0  0  0
   16.9788   43.8565   -8.9409 O   0  0  0  0  0  0
   18.1411   43.7511   -9.6839 C   0  0  0  0  0  0
   18.8947   44.9330   -9.8430 C   0  0  0  0  0  0
   20.0896   44.9464  -10.5983 C   0  0  0  0  0  0
   20.5131   43.7612  -11.2375 C   0  0  0  0  0  0
   19.7864   42.5621  -11.0793 C   0  0  0  0  0  0
   18.6066   42.5609  -10.3021 C   0  0  0  0  0  0
   20.2013   41.3317  -11.8356 C   0  0  0  0  0  0
   20.1669   41.3476  -13.0651 O   0  0  0  0  0  0
   20.5719   40.2206  -11.1658 N   0  0  0  0  0  0
   20.9749   40.0323   -9.7642 C   0  0  1  0  0  0
   20.3220   38.7274   -9.2056 C   0  0  0  0  0  0
   22.5314   40.0729   -9.6968 C   0  0  2  0  0  0
   22.9823   39.6016   -8.4382 O   0  0  0  0  0  0
   23.1361   41.4719   -9.9396 C   0  0  0  0  0  0
   24.5580   41.3812  -10.3443 N   0  3  0  0  0  0
   25.1660   42.6212  -10.8509 C   0  0  0  0  0  0
   24.4627   43.3339  -11.9812 C   0  0  0  0  0  0
   24.4354   43.9164  -10.5883 C   0  0  0  0  0  0
   26.6875   42.6545  -10.8350 C   0  0  0  0  0  0
   27.3982   43.5768  -10.0331 C   0  0  0  0  0  0
   28.8177   43.5754  -10.0519 C   0  0  0  0  0  0
   29.4448   42.6261  -10.8962 C   0  0  0  0  0  0
   28.6508   41.7491  -11.6610 C   0  0  0  0  0  0
   27.3027   41.7576  -11.6376 N   0  0  0  0  0  0
   29.6716   44.5476   -9.2064 C   0  0  0  0  0  0
   30.0486   45.7845  -10.0540 C   0  0  0  0  0  0
   28.8694   45.0046   -7.9662 C   0  0  0  0  0  0
   30.9905   43.9146   -8.6981 C   0  0  0  0  0  0
   20.8617   46.2227  -10.8050 C   0  0  0  0  0  0
   21.2436   46.4966  -11.9445 O   0  0  0  0  0  0
   21.1025   47.0255   -9.7365 N   0  0  0  0  0  0
   20.5722   46.6830   -8.4129 C   0  0  0  0  0  0
   21.7873   48.3224   -9.8027 C   0  0  0  0  0  0
   18.7120   39.8718   -8.3411 H   0  0  0  0  0  0
   20.6171   40.8774   -9.1778 H   0  0  0  0  0  0
   22.9293   39.4040  -10.4618 H   0  0  0  0  0  0
   19.0635   39.2846   -5.9740 H   0  0  0  0  0  0
   20.5323   39.9239   -6.6756 H   0  0  0  0  0  0
   20.3688   38.1888   -6.4127 H   0  0  0  0  0  0
   17.7070   37.6934   -7.1532 H   0  0  0  0  0  0
   18.6554   36.8480   -8.3292 H   0  0  0  0  0  0
   17.4638   38.3161  -10.1192 H   0  0  0  0  0  0
   16.5321   37.0620   -9.3601 H   0  0  0  0  0  0
   16.4493   39.8031   -8.1055 H   0  0  0  0  0  0
   15.2733   38.5505   -8.0140 H   0  0  0  0  0  0
   15.8423   39.8845  -10.7041 H   0  0  0  0  0  0
   14.4597   38.9581  -10.2195 H   0  0  0  0  0  0
   14.0610   40.9435   -8.4582 H   0  0  0  0  0  0
   13.5552   41.0410  -10.1121 H   0  0  0  0  0  0
   15.7274   42.2503  -10.6903 H   0  0  0  0  0  0
   14.5174   43.1151   -9.8083 H   0  0  0  0  0  0
   15.6786   42.9067   -7.6996 H   0  0  0  0  0  0
   16.9130   41.8808   -8.3364 H   0  0  0  0  0  0
   18.5344   45.8438   -9.3863 H   0  0  0  0  0  0
   21.4025   43.7704  -11.8525 H   0  0  0  0  0  0
   18.0498   41.6395  -10.2306 H   0  0  0  0  0  0
   20.7502   39.4158  -11.7493 H   0  0  0  0  0  0
   21.0749   38.0521   -8.7990 H   0  0  0  0  0  0
   19.9005   38.1666  -10.0413 H   0  0  0  0  0  0
   23.7682   39.0941   -8.5722 H   0  0  0  0  0  0
   23.0403   42.0914   -9.0480 H   0  0  0  0  0  0
   22.5909   41.9712  -10.7413 H   0  0  0  0  0  0
   24.6255   40.6865  -11.0743 H   0  0  0  0  0  0
   25.0821   43.8342  -12.7255 H   0  0  0  0  0  0
   23.5419   42.8916  -12.3615 H   0  0  0  0  0  0
   23.4963   43.8635  -10.0374 H   0  0  0  0  0  0
   25.0366   44.8062  -10.4014 H   0  0  0  0  0  0
   26.8335   44.2648   -9.4234 H   0  0  0  0  0  0
   30.5200   42.5589  -10.9686 H   0  0  0  0  0  0
   29.1132   41.0204  -12.3104 H   0  0  0  0  0  0
   30.6067   45.4989  -10.9467 H   0  0  0  0  0  0
   30.6731   46.4798   -9.4914 H   0  0  0  0  0  0
   29.1741   46.3461  -10.3832 H   0  0  0  0  0  0
   28.5747   44.1548   -7.3489 H   0  0  0  0  0  0
   27.9600   45.5430   -8.2336 H   0  0  0  0  0  0
   29.4553   45.6743   -7.3352 H   0  0  0  0  0  0
   30.8086   43.0511   -8.0566 H   0  0  0  0  0  0
   31.5697   44.6246   -8.1061 H   0  0  0  0  0  0
   31.6344   43.5969   -9.5194 H   0  0  0  0  0  0
   21.0937   47.2145   -7.6157 H   0  0  0  0  0  0
   20.6810   45.6193   -8.1944 H   0  0  0  0  0  0
   19.5138   46.9393   -8.3483 H   0  0  0  0  0  0
   21.4504   48.9939   -9.0117 H   0  0  0  0  0  0
   21.5978   48.8463  -10.7404 H   0  0  0  0  0  0
   22.8640   48.1947   -9.6865 H   0  0  0  0  0  0
   25.0964   41.0621   -9.5516 H   0  0  0  0  0  0
  1  2  1  0  0  0
  1 47  1  0  0  0
  1 48  1  0  0  0
  1 49  1  0  0  0
  2 44  1  0  0  0
  2 21  1  0  0  0
  2  3  1  0  0  0
  3  4  1  0  0  0
  3 50  1  0  0  0
  3 51  1  0  0  0
  4  5  1  0  0  0
  4 52  1  0  0  0
  4 53  1  0  0  0
  5  6  1  0  0  0
  5 54  1  0  0  0
  5 55  1  0  0  0
  6  7  1  0  0  0
  6 56  1  0  0  0
  6 57  1  0  0  0
  7  8  1  0  0  0
  7 58  1  0  0  0
  7 59  1  0  0  0
  8  9  1  0  0  0
  8 60  1  0  0  0
  8 61  1  0  0  0
  9 10  1  0  0  0
  9 62  1  0  0  0
  9 63  1  0  0  0
 10 11  1  0  0  0
 11 16  1  0  0  0
 11 12  2  0  0  0
 12 13  1  0  0  0
 12 64  1  0  0  0
 13 14  2  0  0  0
 13 39  1  0  0  0
 14 15  1  0  0  0
 14 65  1  0  0  0
 15 16  2  0  0  0
 15 17  1  0  0  0
 16 66  1  0  0  0
 17 18  2  0  0  0
 17 19  1  0  0  0
 19 20  1  0  0  0
 19 67  1  0  0  0
 20 45  1  0  0  0
 20 21  1  0  0  0
 20 22  1  0  0  0
 21 68  1  0  0  0
 21 69  1  0  0  0
 22 46  1  0  0  0
 22 23  1  0  0  0
 22 24  1  0  0  0
 23 70  1  0  0  0
 24 25  1  0  0  0
 24 71  1  0  0  0
 24 72  1  0  0  0
 25 26  1  0  0  0
 25 73  1  0  0  0
 25 96  1  0  0  0
 26 28  1  0  0  0
 26 27  1  0  0  0
 26 29  1  0  0  0
 27 28  1  0  0  0
 27 74  1  0  0  0
 27 75  1  0  0  0
 28 76  1  0  0  0
 28 77  1  0  0  0
 29 34  1  0  0  0
 29 30  2  0  0  0
 30 31  1  0  0  0
 30 78  1  0  0  0
 31 32  2  0  0  0
 31 35  1  0  0  0
 32 33  1  0  0  0
 32 79  1  0  0  0
 33 34  2  0  0  0
 33 80  1  0  0  0
 35 36  1  0  0  0
 35 37  1  0  0  0
 35 38  1  0  0  0
 36 81  1  0  0  0
 36 82  1  0  0  0
 36 83  1  0  0  0
 37 84  1  0  0  0
 37 85  1  0  0  0
 37 86  1  0  0  0
 38 87  1  0  0  0
 38 88  1  0  0  0
 38 89  1  0  0  0
 39 40  2  0  0  0
 39 41  1  0  0  0
 41 42  1  0  0  0
 41 43  1  0  0  0
 42 90  1  0  0  0
 42 91  1  0  0  0
 42 92  1  0  0  0
 43 93  1  0  0  0
 43 94  1  0  0  0
 43 95  1  0  0  0
M  CHG  1  25   1
M  END
> <s_m_source_file>
BACE_83.smi

> <i_m_source_file_index>
1

> <i_lp_mmshare_version>
42013

> <i_f3d_flags>
0

> <s_epik_input>
TzFbQ0gyXVtDSDJdW0NIMl1bQ0gyXVtDSDJdW0NIMl1bQ0gyXVtDQEBIXShbQ0gzXSlbQ0gyXVtDQEhdKFtOSF1DKD1PKWMoW2NIXTIpW2NIXWMoW2NIXWMxMilDKD1PKU4oW0NIM10pW0NIM10pW0NASF0oW09IXSlbQ0gyXVtOSF1DMyhbQ0gyXVtDSDJdMyljNFtjSF1jKFtjSF1bY0hdbjQpQyhbQ0gzXSkoW0NIM10pW0NIM10=

> <s_epik_cmdline>
J2VwaWtfcHl0aG9uJywgJy1waCcsICc3LjAnLCAnLXRuJywgJzgnLCAnLW1hJywgJzIwMCcsICctaW1hZScsICc8aW5maWxlLm1hZT4nLCAnLW9tYWUnLCAnPG91dGZpbGUubWFlPic=

> <r_lp_tautomer_probability>
1

> <r_epik_Ionization_Penalty>
  0.7256

> <r_epik_Ionization_Penalty_Charging>
  0.7242

> <r_epik_Ionization_Penalty_Neutral>
  0.0014

> <r_epik_State_Penalty>
  1.7267

> <r_epik_Charging_Adjusted_Penalty>
2.45089

> <i_epik_Tot_Q>
1

> <i_epik_Tot_abs_Q>
1

> <s_lp_Force_Field>
OPLS_2005

> <r_lp_Energy>
57.6177

> <b_lp_Chiralities_Consistent>
1

> <s_lp_Variant>
BACE_83.smi:1-3

> <chiral flag>
1

> <version>
0

> <s_i_glide_gridfile>
second_dock_grid_2

> <i_i_glide_lignum>
39

> <i_i_glide_rotatable_bonds>
9

> <r_i_docking_score>
-3.99321

> <r_i_glide_ligand_efficiency>
-0.0928653

> <r_i_glide_ligand_efficiency_sa>
-0.325344

> <r_i_glide_ligand_efficiency_ln>
-0.838698

> <r_glide_XP_GScore>
-5.71991

> <r_i_glide_gscore>
-5.71991

> <r_i_glide_evdw>
-37.5459

> <r_i_glide_ecoul>
-11.9994

> <r_i_glide_energy>
-49.5453

> <r_i_glide_einternal>
11.875

> <r_i_glide_emodel>
-69.5053

> <r_glide_XP_HBond>
-0.950513

> <i_i_glide_confnum>
1

> <i_i_glide_posenum>
9

> <r_i_glide_eff_state_penalty>
1.7267

> <i_glide_XP_PoseRank>
1

$$$$
BACE_84.smi:1
                    3D
 Structure written by MMmdl.
 87 89  0  0  1  0            999 V2000
   17.7830   36.9393   -9.7059 C   0  0  0  0  0  0
   18.1654   38.0389   -8.7264 C   0  0  2  0  0  0
   17.2111   39.2572   -8.8482 C   0  0  0  0  0  0
   15.7198   38.8947   -8.7020 C   0  0  0  0  0  0
   14.7803   40.1003   -8.5449 C   0  0  0  0  0  0
   14.7865   41.0812   -9.7342 C   0  0  0  0  0  0
   15.4113   42.4444   -9.3832 C   0  0  0  0  0  0
   15.5876   43.3884  -10.5912 C   0  0  0  0  0  0
   16.7411   42.9759  -11.5178 C   0  0  0  0  0  0
   17.9300   43.0108  -10.7463 O   0  0  0  0  0  0
   18.9935   42.2297  -11.1324 C   0  0  0  0  0  0
   19.9707   41.9435  -10.1686 C   0  0  0  0  0  0
   21.0166   41.0626  -10.5086 C   0  0  0  0  0  0
   21.0798   40.5784  -11.8292 C   0  0  0  0  0  0
   20.0679   40.9500  -12.7284 C   0  0  0  0  0  0
   19.0330   41.7520  -12.3979 N   0  0  0  0  0  0
   22.0274   40.6210   -9.4965 C   0  0  0  0  0  0
   23.2122   40.9141   -9.6435 O   0  0  0  0  0  0
   21.6119   39.8661   -8.4631 N   0  0  0  0  0  0
   20.2480   39.5069   -8.0388 C   0  0  1  0  0  0
   19.6564   38.4011   -8.9496 C   0  0  0  0  0  0
   20.2742   39.1232   -6.5356 C   0  0  2  0  0  0
   18.9717   38.9500   -6.0289 O   0  0  0  0  0  0
   20.9892   40.1410   -5.6245 C   0  0  0  0  0  0
   20.4601   41.5071   -5.8512 N   0  3  0  0  0  0
   21.1590   42.6624   -5.2334 C   0  0  0  0  0  0
   21.0339   42.5836   -3.7002 C   0  0  0  0  0  0
   22.6440   42.6839   -5.6616 C   0  0  0  0  0  0
   20.4636   43.9124   -5.7513 C   0  0  0  0  0  0
   19.2612   44.0384   -6.5143 C   0  0  0  0  0  0
   19.0898   45.3885   -6.6468 C   0  0  0  0  0  0
   18.0245   46.2312   -7.2753 C   0  0  0  0  0  0
   18.4234   47.0118   -8.5556 C   0  0  0  0  0  0
   19.4497   48.1152   -8.2312 C   0  0  0  0  0  0
   17.1611   47.6760   -9.1366 C   0  0  0  0  0  0
   19.0160   46.0671   -9.6175 C   0  0  0  0  0  0
   20.0951   46.0466   -6.0222 O   0  0  0  0  0  0
   20.9661   45.1040   -5.4726 N   0  0  0  0  0  0
   18.0315   37.5853   -7.7471 H   0  0  0  0  0  0
   19.6273   40.3934   -8.1372 H   0  0  0  0  0  0
   20.7740   38.1574   -6.4396 H   0  0  0  0  0  0
   17.8412   37.3498  -10.7114 H   0  0  0  0  0  0
   16.7767   36.5573   -9.5368 H   0  0  0  0  0  0
   18.4601   36.0903   -9.6399 H   0  0  0  0  0  0
   17.4468   39.9878   -8.0755 H   0  0  0  0  0  0
   17.3766   39.7592   -9.8025 H   0  0  0  0  0  0
   15.3877   38.3111   -9.5616 H   0  0  0  0  0  0
   15.5944   38.2497   -7.8293 H   0  0  0  0  0  0
   13.7703   39.7010   -8.4375 H   0  0  0  0  0  0
   14.9875   40.6200   -7.6074 H   0  0  0  0  0  0
   15.2942   40.6270  -10.5857 H   0  0  0  0  0  0
   13.7584   41.2449  -10.0613 H   0  0  0  0  0  0
   14.7757   42.9332   -8.6425 H   0  0  0  0  0  0
   16.3715   42.2941   -8.8877 H   0  0  0  0  0  0
   14.6555   43.4429  -11.1565 H   0  0  0  0  0  0
   15.7822   44.3973  -10.2242 H   0  0  0  0  0  0
   16.5435   41.9842  -11.9245 H   0  0  0  0  0  0
   16.8301   43.6698  -12.3544 H   0  0  0  0  0  0
   19.8908   42.3664   -9.1784 H   0  0  0  0  0  0
   21.8807   39.9217  -12.1436 H   0  0  0  0  0  0
   20.0744   40.5714  -13.7403 H   0  0  0  0  0  0
   22.3596   39.4991   -7.8934 H   0  0  0  0  0  0
   20.2620   37.5018   -8.8407 H   0  0  0  0  0  0
   19.7700   38.6977   -9.9924 H   0  0  0  0  0  0
   18.4443   39.7309   -6.1370 H   0  0  0  0  0  0
   20.8684   39.8574   -4.5780 H   0  0  0  0  0  0
   22.0576   40.0959   -5.8334 H   0  0  0  0  0  0
   20.4592   41.6694   -6.8460 H   0  0  0  0  0  0
   21.5022   43.4451   -3.2244 H   0  0  0  0  0  0
   21.5256   41.6996   -3.2954 H   0  0  0  0  0  0
   19.9902   42.5623   -3.3828 H   0  0  0  0  0  0
   23.1474   43.5819   -5.3018 H   0  0  0  0  0  0
   22.7550   42.6604   -6.7477 H   0  0  0  0  0  0
   23.2058   41.8477   -5.2431 H   0  0  0  0  0  0
   18.5975   43.2702   -6.8894 H   0  0  0  0  0  0
   17.1764   45.5819   -7.5027 H   0  0  0  0  0  0
   17.6593   46.9384   -6.5301 H   0  0  0  0  0  0
   19.6577   48.7284   -9.1081 H   0  0  0  0  0  0
   20.4029   47.7002   -7.9037 H   0  0  0  0  0  0
   19.0893   48.7782   -7.4437 H   0  0  0  0  0  0
   16.7257   48.3786   -8.4264 H   0  0  0  0  0  0
   16.3969   46.9382   -9.3846 H   0  0  0  0  0  0
   17.3864   48.2307  -10.0477 H   0  0  0  0  0  0
   19.2661   46.6060  -10.5316 H   0  0  0  0  0  0
   18.2994   45.2920   -9.8835 H   0  0  0  0  0  0
   19.9261   45.5757   -9.2712 H   0  0  0  0  0  0
   19.4966   41.5193   -5.5261 H   0  0  0  0  0  0
  1  2  1  0  0  0
  1 42  1  0  0  0
  1 43  1  0  0  0
  1 44  1  0  0  0
  2 39  1  0  0  0
  2 21  1  0  0  0
  2  3  1  0  0  0
  3  4  1  0  0  0
  3 45  1  0  0  0
  3 46  1  0  0  0
  4  5  1  0  0  0
  4 47  1  0  0  0
  4 48  1  0  0  0
  5  6  1  0  0  0
  5 49  1  0  0  0
  5 50  1  0  0  0
  6  7  1  0  0  0
  6 51  1  0  0  0
  6 52  1  0  0  0
  7  8  1  0  0  0
  7 53  1  0  0  0
  7 54  1  0  0  0
  8  9  1  0  0  0
  8 55  1  0  0  0
  8 56  1  0  0  0
  9 10  1  0  0  0
  9 57  1  0  0  0
  9 58  1  0  0  0
 10 11  1  0  0  0
 11 16  1  0  0  0
 11 12  2  0  0  0
 12 13  1  0  0  0
 12 59  1  0  0  0
 13 14  2  0  0  0
 13 17  1  0  0  0
 14 15  1  0  0  0
 14 60  1  0  0  0
 15 16  2  0  0  0
 15 61  1  0  0  0
 17 18  2  0  0  0
 17 19  1  0  0  0
 19 20  1  0  0  0
 19 62  1  0  0  0
 20 40  1  0  0  0
 20 21  1  0  0  0
 20 22  1  0  0  0
 21 63  1  0  0  0
 21 64  1  0  0  0
 22 41  1  0  0  0
 22 23  1  0  0  0
 22 24  1  0  0  0
 23 65  1  0  0  0
 24 25  1  0  0  0
 24 66  1  0  0  0
 24 67  1  0  0  0
 25 26  1  0  0  0
 25 68  1  0  0  0
 25 87  1  0  0  0
 26 27  1  0  0  0
 26 28  1  0  0  0
 26 29  1  0  0  0
 27 69  1  0  0  0
 27 70  1  0  0  0
 27 71  1  0  0  0
 28 72  1  0  0  0
 28 73  1  0  0  0
 28 74  1  0  0  0
 29 38  2  0  0  0
 29 30  1  0  0  0
 30 31  2  0  0  0
 30 75  1  0  0  0
 31 32  1  0  0  0
 31 37  1  0  0  0
 32 33  1  0  0  0
 32 76  1  0  0  0
 32 77  1  0  0  0
 33 34  1  0  0  0
 33 35  1  0  0  0
 33 36  1  0  0  0
 34 78  1  0  0  0
 34 79  1  0  0  0
 34 80  1  0  0  0
 35 81  1  0  0  0
 35 82  1  0  0  0
 35 83  1  0  0  0
 36 84  1  0  0  0
 36 85  1  0  0  0
 36 86  1  0  0  0
 37 38  1  0  0  0
M  CHG  1  25   1
M  END
> <s_m_source_file>
BACE_84.smi

> <i_m_source_file_index>
1

> <i_lp_mmshare_version>
42013

> <i_f3d_flags>
0

> <s_epik_input>
TzFbQ0gyXVtDSDJdW0NIMl1bQ0gyXVtDSDJdW0NIMl1bQ0gyXVtDQEBIXShbQ0gzXSlbQ0gyXVtDQEhdKFtOSF1DKD1PKWMoW2NIXWMxMilbY0hdW2NIXW4yKVtDQEhdKFtPSF0pW0NIMl1bTkhdQyhbQ0gzXSkoW0NIM10pYzNbY0hdYyhvbjMpW0NIMl1DKFtDSDNdKShbQ0gzXSlbQ0gzXQ==

> <s_epik_cmdline>
J2VwaWtfcHl0aG9uJywgJy1waCcsICc3LjAnLCAnLXRuJywgJzgnLCAnLW1hJywgJzIwMCcsICctaW1hZScsICc8aW5maWxlLm1hZT4nLCAnLW9tYWUnLCAnPG91dGZpbGUubWFlPic=

> <r_lp_tautomer_probability>
1

> <r_epik_Ionization_Penalty>
  0.2155

> <r_epik_Ionization_Penalty_Charging>
  0.2155

> <r_epik_Ionization_Penalty_Neutral>
  0.0000

> <r_epik_State_Penalty>
  0.2057

> <r_epik_Charging_Adjusted_Penalty>
0.421183

> <i_epik_Tot_Q>
1

> <i_epik_Tot_abs_Q>
1

> <s_lp_Force_Field>
OPLS_2005

> <r_lp_Energy>
33.8734

> <b_lp_Chiralities_Consistent>
1

> <s_lp_Variant>
BACE_84.smi:1-1

> <chiral flag>
1

> <version>
0

> <s_i_glide_gridfile>
second_dock_grid_2

> <i_i_glide_lignum>
40

> <i_i_glide_rotatable_bonds>
8

> <r_i_docking_score>
-4.92036

> <r_i_glide_ligand_efficiency>
-0.129483

> <r_i_glide_ligand_efficiency_sa>
-0.435319

> <r_i_glide_ligand_efficiency_ln>
-1.06097

> <r_glide_XP_GScore>
-5.12606

> <r_i_glide_gscore>
-5.12606

> <r_i_glide_evdw>
-39.001

> <r_i_glide_ecoul>
-8.97551

> <r_i_glide_energy>
-47.9765

> <r_i_glide_einternal>
4.12317

> <r_i_glide_emodel>
-67.5736

> <r_glide_XP_HBond>
-0.464804

> <i_i_glide_confnum>
1

> <i_i_glide_posenum>
1

> <r_i_glide_eff_state_penalty>
0.2057

> <i_glide_XP_PoseRank>
1

$$$$
