BACE_68.smi:1
                    3D
 Structure written by MMmdl.
 98101  0  0  1  0            999 V2000
   20.3693   39.0352   -6.8815 C   0  0  0  0  0  0
   19.8099   39.0172   -8.3158 C   0  0  2  0  0  0
   18.9687   37.7469   -8.5417 C   0  0  0  0  0  0
   17.8501   37.8494   -9.5937 C   0  0  0  0  0  0
   16.7290   38.7796   -9.1155 C   0  0  0  0  0  0
   15.4501   38.7573   -9.9598 C   0  0  0  0  0  0
   14.3249   39.6270   -9.3658 C   0  0  0  0  0  0
   14.6310   41.1367   -9.3136 C   0  0  0  0  0  0
   15.3410   41.5742   -8.0132 C   0  0  0  0  0  0
   15.8343   42.9440   -8.0403 N   0  0  0  0  0  0
   17.1980   43.0867   -8.3324 C   0  0  0  0  0  0
   17.9728   43.8587   -7.4538 C   0  0  0  0  0  0
   19.3724   43.9874   -7.6181 C   0  0  0  0  0  0
   19.9801   43.3170   -8.7108 C   0  0  0  0  0  0
   19.2081   42.5744   -9.6315 C   0  0  0  0  0  0
   17.8164   42.4796   -9.4451 C   0  0  0  0  0  0
   19.8224   41.9443  -10.8512 C   0  0  0  0  0  0
   19.3397   42.1717  -11.9600 O   0  0  0  0  0  0
   20.8809   41.1268  -10.7284 N   0  0  0  0  0  0
   21.5081   40.5378   -9.5391 C   0  0  1  0  0  0
   20.9486   39.1101   -9.3492 C   0  0  0  0  0  0
   23.0474   40.5249   -9.7059 C   0  0  2  0  0  0
   23.6582   40.1787   -8.4807 O   0  0  0  0  0  0
   23.6685   41.8722  -10.1249 C   0  0  0  0  0  0
   25.1075   41.7111  -10.4388 N   0  3  0  0  0  0
   25.8726   42.8820  -10.9573 C   0  0  0  0  0  0
   25.3624   43.3981  -12.2876 C   0  0  0  0  0  0
   25.1692   44.2294  -11.0376 C   0  0  0  0  0  0
   27.3513   42.7676  -10.7274 C   0  0  0  0  0  0
   28.0119   43.6241   -9.8194 C   0  0  0  0  0  0
   29.4170   43.5701   -9.6386 C   0  0  0  0  0  0
   30.1468   42.6263  -10.3980 C   0  0  0  0  0  0
   29.4971   41.7519  -11.2837 C   0  0  0  0  0  0
   28.1060   41.8271  -11.4503 C   0  0  0  0  0  0
   30.1339   44.5461   -8.6827 C   0  0  0  0  0  0
   31.4063   43.9154   -8.0697 C   0  0  0  0  0  0
   30.5376   45.7999   -9.4783 C   0  0  0  0  0  0
   29.2351   44.9968   -7.5062 C   0  0  0  0  0  0
   20.1568   44.7161   -6.5491 C   0  0  0  0  0  0
   19.6605   44.8161   -5.4244 O   0  0  0  0  0  0
   21.3890   45.2357   -6.8190 N   0  0  0  0  0  0
   22.2820   45.6157   -5.7159 C   0  0  0  0  0  0
   21.8769   45.6583   -8.1337 C   0  0  0  0  0  0
   19.1718   39.8926   -8.4147 H   0  0  0  0  0  0
   21.2946   41.1252   -8.6511 H   0  0  0  0  0  0
   23.2876   39.7588  -10.4471 H   0  0  0  0  0  0
   19.5581   39.0390   -6.1518 H   0  0  0  0  0  0
   20.9770   39.9192   -6.6871 H   0  0  0  0  0  0
   20.9876   38.1600   -6.6827 H   0  0  0  0  0  0
   18.5184   37.4203   -7.6035 H   0  0  0  0  0  0
   19.6464   36.9513   -8.8458 H   0  0  0  0  0  0
   18.2478   38.1917  -10.5495 H   0  0  0  0  0  0
   17.4435   36.8517   -9.7688 H   0  0  0  0  0  0
   16.4753   38.5324   -8.0837 H   0  0  0  0  0  0
   17.1293   39.7840   -9.1258 H   0  0  0  0  0  0
   15.0936   37.7320  -10.0372 H   0  0  0  0  0  0
   15.6730   39.0906  -10.9730 H   0  0  0  0  0  0
   13.4396   39.4778   -9.9812 H   0  0  0  0  0  0
   14.0445   39.2711   -8.3724 H   0  0  0  0  0  0
   13.6948   41.6892   -9.3794 H   0  0  0  0  0  0
   15.1825   41.4221  -10.2037 H   0  0  0  0  0  0
   16.1511   40.9126   -7.7210 H   0  0  0  0  0  0
   14.6318   41.5006   -7.1886 H   0  0  0  0  0  0
   15.6109   43.3501   -7.1281 H   0  0  0  0  0  0
   17.4927   44.3181   -6.6058 H   0  0  0  0  0  0
   21.0436   43.3510   -8.8610 H   0  0  0  0  0  0
   17.2383   41.9135  -10.1563 H   0  0  0  0  0  0
   21.2128   40.7586  -11.6093 H   0  0  0  0  0  0
   21.7365   38.4199   -9.0464 H   0  0  0  0  0  0
   20.6153   38.7259  -10.3163 H   0  0  0  0  0  0
   23.8675   39.2559   -8.5243 H   0  0  0  0  0  0
   23.5348   42.6074   -9.3317 H   0  0  0  0  0  0
   23.1592   42.2525  -11.0071 H   0  0  0  0  0  0
   25.1894   40.9726  -11.1266 H   0  0  0  0  0  0
   26.0950   43.7614  -13.0070 H   0  0  0  0  0  0
   24.4703   42.9664  -12.7309 H   0  0  0  0  0  0
   24.1451   44.3500  -10.6941 H   0  0  0  0  0  0
   25.7808   45.1248  -10.9608 H   0  0  0  0  0  0
   27.4148   44.3457   -9.2808 H   0  0  0  0  0  0
   31.2212   42.5559  -10.3161 H   0  0  0  0  0  0
   30.0667   41.0261  -11.8474 H   0  0  0  0  0  0
   27.6218   41.1533  -12.1429 H   0  0  0  0  0  0
   31.1968   42.9562   -7.5956 H   0  0  0  0  0  0
   31.8426   44.5627   -7.3098 H   0  0  0  0  0  0
   32.1895   43.7501   -8.8083 H   0  0  0  0  0  0
   29.6673   46.2889   -9.9173 H   0  0  0  0  0  0
   31.2196   45.5592  -10.2934 H   0  0  0  0  0  0
   31.0342   46.5333   -8.8407 H   0  0  0  0  0  0
   28.3857   45.5977   -7.8299 H   0  0  0  0  0  0
   29.7857   45.6214   -6.8049 H   0  0  0  0  0  0
   28.8458   44.1499   -6.9402 H   0  0  0  0  0  0
   23.3276   45.5985   -6.0326 H   0  0  0  0  0  0
   22.2004   44.9196   -4.8744 H   0  0  0  0  0  0
   22.0579   46.6245   -5.3557 H   0  0  0  0  0  0
   22.4132   46.6067   -8.0513 H   0  0  0  0  0  0
   21.0732   45.8157   -8.8562 H   0  0  0  0  0  0
   22.5801   44.9280   -8.5288 H   0  0  0  0  0  0
   25.5535   41.3937   -9.5900 H   0  0  0  0  0  0
  1  2  1  0  0  0
  1 47  1  0  0  0
  1 48  1  0  0  0
  1 49  1  0  0  0
  2 44  1  0  0  0
  2 21  1  0  0  0
  2  3  1  0  0  0
  3  4  1  0  0  0
  3 50  1  0  0  0
  3 51  1  0  0  0
  4  5  1  0  0  0
  4 52  1  0  0  0
  4 53  1  0  0  0
  5  6  1  0  0  0
  5 54  1  0  0  0
  5 55  1  0  0  0
  6  7  1  0  0  0
  6 56  1  0  0  0
  6 57  1  0  0  0
  7  8  1  0  0  0
  7 58  1  0  0  0
  7 59  1  0  0  0
  8  9  1  0  0  0
  8 60  1  0  0  0
  8 61  1  0  0  0
  9 10  1  0  0  0
  9 62  1  0  0  0
  9 63  1  0  0  0
 10 11  1  0  0  0
 10 64  1  0  0  0
 11 16  1  0  0  0
 11 12  2  0  0  0
 12 13  1  0  0  0
 12 65  1  0  0  0
 13 14  2  0  0  0
 13 39  1  0  0  0
 14 15  1  0  0  0
 14 66  1  0  0  0
 15 16  2  0  0  0
 15 17  1  0  0  0
 16 67  1  0  0  0
 17 18  2  0  0  0
 17 19  1  0  0  0
 19 20  1  0  0  0
 19 68  1  0  0  0
 20 45  1  0  0  0
 20 21  1  0  0  0
 20 22  1  0  0  0
 21 69  1  0  0  0
 21 70  1  0  0  0
 22 46  1  0  0  0
 22 23  1  0  0  0
 22 24  1  0  0  0
 23 71  1  0  0  0
 24 25  1  0  0  0
 24 72  1  0  0  0
 24 73  1  0  0  0
 25 26  1  0  0  0
 25 74  1  0  0  0
 25 98  1  0  0  0
 26 28  1  0  0  0
 26 27  1  0  0  0
 26 29  1  0  0  0
 27 28  1  0  0  0
 27 75  1  0  0  0
 27 76  1  0  0  0
 28 77  1  0  0  0
 28 78  1  0  0  0
 29 34  1  0  0  0
 29 30  2  0  0  0
 30 31  1  0  0  0
 30 79  1  0  0  0
 31 32  2  0  0  0
 31 35  1  0  0  0
 32 33  1  0  0  0
 32 80  1  0  0  0
 33 34  2  0  0  0
 33 81  1  0  0  0
 34 82  1  0  0  0
 35 36  1  0  0  0
 35 37  1  0  0  0
 35 38  1  0  0  0
 36 83  1  0  0  0
 36 84  1  0  0  0
 36 85  1  0  0  0
 37 86  1  0  0  0
 37 87  1  0  0  0
 37 88  1  0  0  0
 38 89  1  0  0  0
 38 90  1  0  0  0
 38 91  1  0  0  0
 39 40  2  0  0  0
 39 41  1  0  0  0
 41 42  1  0  0  0
 41 43  1  0  0  0
 42 92  1  0  0  0
 42 93  1  0  0  0
 42 94  1  0  0  0
 43 95  1  0  0  0
 43 96  1  0  0  0
 43 97  1  0  0  0
M  CHG  1  25   1
M  END
> <s_m_source_file>
BACE_68.smi

> <i_m_source_file_index>
1

> <i_lp_mmshare_version>
42013

> <i_f3d_flags>
0

> <s_epik_input>
W05IXTFbQ0gyXVtDSDJdW0NIMl1bQ0gyXVtDSDJdW0NIMl1bQ0gyXVtDQEBIXShbQ0gzXSlbQ0gyXVtDQEhdKFtOSF1DKD1PKWMoW2NIXTIpW2NIXWMoW2NIXWMxMilDKD1PKU4oW0NIM10pW0NIM10pW0NASF0oW09IXSlbQ0gyXVtOSF1DMyhbQ0gyXVtDSDJdMyljNFtjSF1jKEMoW0NIM10pKFtDSDNdKVtDSDNdKVtjSF1bY0hdW2NIXTQ=

> <s_epik_cmdline>
J2VwaWtfcHl0aG9uJywgJy1waCcsICc3LjAnLCAnLXRuJywgJzgnLCAnLW1hJywgJzIwMCcsICctaW1hZScsICc8aW5maWxlLm1hZT4nLCAnLW9tYWUnLCAnPG91dGZpbGUubWFlPic=

> <r_epik_Ionization_Penalty>
  0.4614

> <r_epik_Ionization_Penalty_Charging>
  0.4613

> <r_epik_Ionization_Penalty_Neutral>
  0.0001

> <r_epik_State_Penalty>
  0.4648

> <r_epik_Charging_Adjusted_Penalty>
0.926118

> <i_epik_Tot_Q>
1

> <i_epik_Tot_abs_Q>
1

> <s_lp_Force_Field>
OPLS_2005

> <r_lp_Energy>
55.0954

> <b_lp_Chiralities_Consistent>
1

> <s_lp_Variant>
BACE_68.smi:1-2

> <chiral flag>
1

> <version>
0

> <s_i_glide_gridfile>
second_dock_grid_2

> <i_i_glide_lignum>
27

> <i_i_glide_rotatable_bonds>
9

> <r_i_docking_score>
-4.54715

> <r_i_glide_ligand_efficiency>
-0.105748

> <r_i_glide_ligand_efficiency_sa>
-0.370476

> <r_i_glide_ligand_efficiency_ln>
-0.955044

> <r_glide_XP_GScore>
-5.01195

> <r_i_glide_gscore>
-5.01195

> <r_i_glide_evdw>
-41.0314

> <r_i_glide_ecoul>
-15.3035

> <r_i_glide_energy>
-56.3349

> <r_i_glide_einternal>
5.45964

> <r_i_glide_emodel>
-74.1507

> <r_glide_XP_HBond>
-0.845399

> <i_i_glide_confnum>
1

> <i_i_glide_posenum>
8

> <r_i_glide_eff_state_penalty>
0.4648

> <i_glide_XP_PoseRank>
1

$$$$
BACE_73.smi:1
                    3D
 Structure written by MMmdl.
 80 82  0  0  1  0            999 V2000
   30.0542   41.3518  -11.8466 C   0  0  0  0  0  0
   29.9037   42.7707  -12.4189 C   0  0  0  0  0  0
   28.7522   42.9507  -13.2399 O   0  0  0  0  0  0
   27.5776   43.2582  -12.6008 C   0  0  0  0  0  0
   27.0042   42.4035  -11.6388 C   0  0  0  0  0  0
   25.7986   42.7470  -11.0026 C   0  0  0  0  0  0
   25.2590   41.8296   -9.9307 C   0  0  0  0  0  0
   24.1955   40.9502  -10.4400 N   0  3  0  0  0  0
   22.8158   41.3083  -10.0589 C   0  0  0  0  0  0
   21.9351   40.0465   -9.9477 C   0  0  1  0  0  0
   22.4602   39.3429   -8.8422 O   0  0  0  0  0  0
   20.4212   40.2908   -9.6911 C   0  0  2  0  0  0
   19.6539   38.9384   -9.6260 C   0  0  0  0  0  0
   18.2262   38.9228   -9.0215 C   0  0  2  0  0  0
   17.1616   39.5084   -9.9618 C   0  0  0  0  0  0
   18.1038   39.5104   -7.5953 C   0  0  0  0  0  0
   18.9817   38.8303   -6.5208 C   0  0  0  0  0  0
   20.3113   39.3430   -6.5080 O   0  0  0  0  0  0
   20.4591   40.5230   -5.7290 C   0  0  0  0  0  0
   21.8674   41.1081   -5.9056 C   0  0  0  0  0  0
   22.1593   42.3263   -5.0041 C   0  0  0  0  0  0
   21.2041   43.5243   -5.1761 C   0  0  0  0  0  0
   21.2674   44.1032   -6.5170 N   0  0  0  0  0  0
   20.1263   43.9209   -7.3117 C   0  0  0  0  0  0
   20.2598   43.3500   -8.5917 C   0  0  0  0  0  0
   19.1248   43.0257   -9.3669 C   0  0  0  0  0  0
   17.8462   43.3828   -8.8899 C   0  0  0  0  0  0
   17.7070   44.0132   -7.6386 C   0  0  0  0  0  0
   18.8437   44.2759   -6.8497 C   0  0  0  0  0  0
   19.2590   42.3348  -10.6954 C   0  0  0  0  0  0
   18.7697   42.8424  -11.7044 O   0  0  0  0  0  0
   19.8738   41.1369  -10.7578 N   0  0  0  0  0  0
   25.1269   43.9347  -11.3605 C   0  0  0  0  0  0
   25.6675   44.7787  -12.3573 C   0  0  0  0  0  0
   26.8916   44.4323  -12.9696 C   0  0  0  0  0  0
   24.9404   46.0427  -12.7906 C   0  0  0  0  0  0
   25.8045   47.0498  -12.9180 F   0  0  0  0  0  0
   24.3606   45.8262  -13.9730 F   0  0  0  0  0  0
   24.0025   46.3982  -11.9088 F   0  0  0  0  0  0
   22.0479   39.4339  -10.8433 H   0  0  0  0  0  0
   20.3245   40.7717   -8.7207 H   0  0  0  0  0  0
   17.9687   37.8656   -8.9317 H   0  0  0  0  0  0
   31.1023   41.1400  -11.6383 H   0  0  0  0  0  0
   29.6696   40.6012  -12.5396 H   0  0  0  0  0  0
   29.5294   41.2392  -10.8979 H   0  0  0  0  0  0
   29.9373   43.5138  -11.6214 H   0  0  0  0  0  0
   30.7630   42.9748  -13.0571 H   0  0  0  0  0  0
   27.4733   41.4649  -11.3954 H   0  0  0  0  0  0
   26.0739   41.1672   -9.6367 H   0  0  0  0  0  0
   24.9670   42.3879   -9.0405 H   0  0  0  0  0  0
   24.2613   40.8874  -11.4533 H   0  0  0  0  0  0
   22.8356   41.8072   -9.0927 H   0  0  0  0  0  0
   22.4293   42.0153  -10.7936 H   0  0  0  0  0  0
   23.0258   38.6442   -9.1483 H   0  0  0  0  0  0
   19.6258   38.4902  -10.6202 H   0  0  0  0  0  0
   20.2328   38.2333   -9.0306 H   0  0  0  0  0  0
   17.2060   40.5932  -10.0041 H   0  0  0  0  0  0
   16.1612   39.2468   -9.6172 H   0  0  0  0  0  0
   17.2702   39.1204  -10.9724 H   0  0  0  0  0  0
   18.2624   40.5883   -7.6068 H   0  0  0  0  0  0
   17.0681   39.3853   -7.2783 H   0  0  0  0  0  0
   18.5266   38.9498   -5.5365 H   0  0  0  0  0  0
   19.0195   37.7533   -6.7004 H   0  0  0  0  0  0
   19.7238   41.2629   -6.0400 H   0  0  0  0  0  0
   20.2732   40.2924   -4.6784 H   0  0  0  0  0  0
   22.6014   40.3282   -5.6929 H   0  0  0  0  0  0
   22.0120   41.3786   -6.9495 H   0  0  0  0  0  0
   22.1206   42.0054   -3.9629 H   0  0  0  0  0  0
   23.1859   42.6574   -5.1703 H   0  0  0  0  0  0
   20.1902   43.2199   -4.9091 H   0  0  0  0  0  0
   21.4758   44.3002   -4.4592 H   0  0  0  0  0  0
   22.1462   43.9424   -6.9868 H   0  0  0  0  0  0
   21.2390   43.1319   -8.9670 H   0  0  0  0  0  0
   16.9665   43.1603   -9.4762 H   0  0  0  0  0  0
   16.7247   44.2726   -7.2720 H   0  0  0  0  0  0
   18.7336   44.7521   -5.8893 H   0  0  0  0  0  0
   19.8812   40.7187  -11.6759 H   0  0  0  0  0  0
   24.1936   44.1902  -10.8798 H   0  0  0  0  0  0
   27.3094   45.0750  -13.7311 H   0  0  0  0  0  0
   24.3816   40.0268  -10.0605 H   0  0  0  0  0  0
  1  2  1  0  0  0
  1 43  1  0  0  0
  1 44  1  0  0  0
  1 45  1  0  0  0
  2  3  1  0  0  0
  2 46  1  0  0  0
  2 47  1  0  0  0
  3  4  1  0  0  0
  4 35  1  0  0  0
  4  5  2  0  0  0
  5  6  1  0  0  0
  5 48  1  0  0  0
  6  7  1  0  0  0
  6 33  2  0  0  0
  7  8  1  0  0  0
  7 49  1  0  0  0
  7 50  1  0  0  0
  8  9  1  0  0  0
  8 51  1  0  0  0
  8 80  1  0  0  0
  9 10  1  0  0  0
  9 52  1  0  0  0
  9 53  1  0  0  0
 10 40  1  0  0  0
 10 11  1  0  0  0
 10 12  1  0  0  0
 11 54  1  0  0  0
 12 41  1  0  0  0
 12 32  1  0  0  0
 12 13  1  0  0  0
 13 14  1  0  0  0
 13 55  1  0  0  0
 13 56  1  0  0  0
 14 42  1  0  0  0
 14 15  1  0  0  0
 14 16  1  0  0  0
 15 57  1  0  0  0
 15 58  1  0  0  0
 15 59  1  0  0  0
 16 17  1  0  0  0
 16 60  1  0  0  0
 16 61  1  0  0  0
 17 18  1  0  0  0
 17 62  1  0  0  0
 17 63  1  0  0  0
 18 19  1  0  0  0
 19 20  1  0  0  0
 19 64  1  0  0  0
 19 65  1  0  0  0
 20 21  1  0  0  0
 20 66  1  0  0  0
 20 67  1  0  0  0
 21 22  1  0  0  0
 21 68  1  0  0  0
 21 69  1  0  0  0
 22 23  1  0  0  0
 22 70  1  0  0  0
 22 71  1  0  0  0
 23 24  1  0  0  0
 23 72  1  0  0  0
 24 29  1  0  0  0
 24 25  2  0  0  0
 25 26  1  0  0  0
 25 73  1  0  0  0
 26 27  2  0  0  0
 26 30  1  0  0  0
 27 28  1  0  0  0
 27 74  1  0  0  0
 28 29  2  0  0  0
 28 75  1  0  0  0
 29 76  1  0  0  0
 30 31  2  0  0  0
 30 32  1  0  0  0
 32 77  1  0  0  0
 33 34  1  0  0  0
 33 78  1  0  0  0
 34 35  2  0  0  0
 34 36  1  0  0  0
 35 79  1  0  0  0
 36 37  1  0  0  0
 36 38  1  0  0  0
 36 39  1  0  0  0
M  CHG  1   8   1
M  END
> <s_m_source_file>
BACE_73.smi

> <i_m_source_file_index>
1

> <i_lp_mmshare_version>
42013

> <i_f3d_flags>
0

> <s_epik_input>
W0NIM11bQ0gyXU9jMVtjSF1jKFtjSF1jKFtjSF0xKUMoRikoRilGKVtDSDJdW05IXVtDSDJdW0NAQEhdKFtPSF0pW0NAQEhdKFtOSF1DKD1PKWMoW2NIXWMyMylbY0hdW2NIXVtjSF0zKVtDSDJdW0NASF0oW0NIM10pW0NIMl1bQ0gyXU9bQ0gyXVtDSDJdW0NIMl1bQ0gyXVtOSF0y

> <s_epik_cmdline>
J2VwaWtfcHl0aG9uJywgJy1waCcsICc3LjAnLCAnLXRuJywgJzgnLCAnLW1hJywgJzIwMCcsICctaW1hZScsICc8aW5maWxlLm1hZT4nLCAnLW9tYWUnLCAnPG91dGZpbGUubWFlPic=

> <r_lp_tautomer_probability>
1

> <r_epik_Ionization_Penalty>
  0.0232

> <r_epik_Ionization_Penalty_Charging>
  0.0227

> <r_epik_Ionization_Penalty_Neutral>
  0.0005

> <r_epik_State_Penalty>
  0.0183

> <r_epik_Charging_Adjusted_Penalty>
0.0409615

> <i_epik_Tot_Q>
1

> <i_epik_Tot_abs_Q>
1

> <s_lp_Force_Field>
OPLS_2005

> <r_lp_Energy>
39.9778

> <b_lp_Chiralities_Consistent>
1

> <s_lp_Variant>
BACE_73.smi:1-1

> <chiral flag>
1

> <version>
0

> <s_i_glide_gridfile>
second_dock_grid_2

> <i_i_glide_lignum>
28

> <i_i_glide_rotatable_bonds>
9

> <r_i_docking_score>
-5.02719

> <r_i_glide_ligand_efficiency>
-0.128902

> <r_i_glide_ligand_efficiency_sa>
-0.437135

> <r_i_glide_ligand_efficiency_ln>
-1.07797

> <r_glide_XP_GScore>
-5.04549

> <r_i_glide_gscore>
-5.04549

> <r_i_glide_evdw>
-36.6284

> <r_i_glide_ecoul>
-12.9109

> <r_i_glide_energy>
-49.5393

> <r_i_glide_einternal>
10.1347

> <r_i_glide_emodel>
-66.8302

> <r_glide_XP_HBond>
-0.48

> <i_i_glide_confnum>
1

> <i_i_glide_posenum>
12

> <r_i_glide_eff_state_penalty>
0.0183

> <i_glide_XP_PoseRank>
1

$$$$
