BACE_57.smi:1
                    3D
 Structure written by MMmdl.
 88 90  0  0  1  0            999 V2000
   27.3079   42.5060  -11.8978 C   0  0  0  0  0  0
   26.4425   42.9082  -10.6929 C   0  0  2  0  0  0
   27.3186   43.2922   -9.4767 C   0  0  0  0  0  0
   28.1763   44.5702   -9.5911 C   0  0  0  0  0  0
   27.4372   45.8841   -9.9256 C   0  0  0  0  0  0
   26.1004   46.1263   -9.2008 C   0  0  0  0  0  0
   26.1395   46.0850   -7.6613 C   0  0  0  0  0  0
   24.7147   46.0163   -7.0901 C   0  0  0  0  0  0
   24.6413   45.5188   -5.6399 C   0  0  0  0  0  0
   23.2678   45.2324   -5.2435 N   0  0  0  0  0  0
   22.5734   44.1204   -5.7498 C   0  0  0  0  0  0
   23.2030   43.0560   -6.4450 C   0  0  0  0  0  0
   22.4445   41.9716   -6.9474 C   0  0  0  0  0  0
   21.0540   41.9405   -6.7086 C   0  0  0  0  0  0
   20.4245   42.9888   -6.0163 C   0  0  0  0  0  0
   21.1809   44.0747   -5.5432 C   0  0  0  0  0  0
   23.0775   40.7957   -7.6403 C   0  0  0  0  0  0
   22.8593   39.6680   -7.2093 O   0  0  0  0  0  0
   23.7898   40.9546   -8.7722 N   0  0  0  0  0  0
   24.2494   42.1654   -9.4589 C   0  0  1  0  0  0
   25.4710   41.7601  -10.3259 C   0  0  0  0  0  0
   23.1533   42.9068  -10.3002 C   0  0  2  0  0  0
   22.9714   44.1904   -9.7430 O   0  0  0  0  0  0
   21.7504   42.2661  -10.4003 C   0  0  0  0  0  0
   21.6600   41.3049  -11.4976 N   0  0  0  0  0  0
   20.7842   40.1470  -11.2763 C   0  0  0  0  0  0
   20.7066   39.3871  -12.5938 C   0  0  0  0  0  0
   21.4110   39.1755  -10.2521 C   0  0  0  0  0  0
   19.3768   40.5272  -10.8301 C   0  0  0  0  0  0
   18.7597   40.2354   -9.5802 C   0  0  0  0  0  0
   17.5120   40.7696   -9.6825 C   0  0  0  0  0  0
   16.3576   40.7937   -8.7287 C   0  0  0  0  0  0
   15.4830   39.5063   -8.6592 C   0  0  0  0  0  0
   14.9284   39.3572   -7.2262 C   0  0  0  0  0  0
   16.2710   38.2207   -9.0010 C   0  0  0  0  0  0
   14.3036   39.6333   -9.6409 C   0  0  0  0  0  0
   17.3606   41.3616  -10.8982 O   0  0  0  0  0  0
   18.5625   41.2309  -11.6108 N   0  0  0  0  0  0
   25.8486   43.7668  -11.0029 H   0  0  0  0  0  0
   24.6198   42.8391   -8.6919 H   0  0  0  0  0  0
   23.5210   43.0879  -11.3113 H   0  0  0  0  0  0
   27.9061   41.6206  -11.6815 H   0  0  0  0  0  0
   27.9876   43.3066  -12.1904 H   0  0  0  0  0  0
   26.6869   42.2850  -12.7652 H   0  0  0  0  0  0
   26.6939   43.3871   -8.5930 H   0  0  0  0  0  0
   27.9844   42.4593   -9.2498 H   0  0  0  0  0  0
   28.6965   44.7042   -8.6417 H   0  0  0  0  0  0
   28.9657   44.4153  -10.3262 H   0  0  0  0  0  0
   28.1090   46.7206   -9.7340 H   0  0  0  0  0  0
   27.2439   45.9067  -10.9982 H   0  0  0  0  0  0
   25.6983   47.0889   -9.5158 H   0  0  0  0  0  0
   25.3846   45.3890   -9.5587 H   0  0  0  0  0  0
   26.6939   45.2105   -7.3238 H   0  0  0  0  0  0
   26.6739   46.9495   -7.2658 H   0  0  0  0  0  0
   24.2310   46.9880   -7.1830 H   0  0  0  0  0  0
   24.1310   45.3372   -7.7068 H   0  0  0  0  0  0
   25.2595   44.6325   -5.4934 H   0  0  0  0  0  0
   25.0461   46.2776   -4.9697 H   0  0  0  0  0  0
   22.7314   45.9840   -4.8398 H   0  0  0  0  0  0
   24.2721   43.0524   -6.5783 H   0  0  0  0  0  0
   20.4609   41.1046   -7.0522 H   0  0  0  0  0  0
   19.3598   42.9495   -5.8406 H   0  0  0  0  0  0
   20.6838   44.8693   -5.0064 H   0  0  0  0  0  0
   24.1136   40.0840   -9.1777 H   0  0  0  0  0  0
   25.0999   41.2893  -11.2354 H   0  0  0  0  0  0
   26.0483   40.9814   -9.8226 H   0  0  0  0  0  0
   22.3549   44.6628  -10.2800 H   0  0  0  0  0  0
   21.4376   41.8343   -9.4550 H   0  0  0  0  0  0
   21.0091   43.0430  -10.5936 H   0  0  0  0  0  0
   22.5880   40.9818  -11.7697 H   0  0  0  0  0  0
   20.0604   38.5314  -12.4401 H   0  0  0  0  0  0
   21.6742   39.0267  -12.9352 H   0  0  0  0  0  0
   20.2843   40.0035  -13.3862 H   0  0  0  0  0  0
   20.8844   38.2206  -10.2340 H   0  0  0  0  0  0
   21.3490   39.5656   -9.2448 H   0  0  0  0  0  0
   22.4597   38.9639  -10.4533 H   0  0  0  0  0  0
   19.1525   39.6960   -8.7325 H   0  0  0  0  0  0
   16.7787   40.9800   -7.7384 H   0  0  0  0  0  0
   15.7327   41.6646   -8.9256 H   0  0  0  0  0  0
   14.2233   38.5294   -7.1496 H   0  0  0  0  0  0
   14.4155   40.2586   -6.8958 H   0  0  0  0  0  0
   15.7239   39.1606   -6.5065 H   0  0  0  0  0  0
   17.1369   38.1017   -8.3481 H   0  0  0  0  0  0
   16.6253   38.2148  -10.0322 H   0  0  0  0  0  0
   15.6565   37.3310   -8.8710 H   0  0  0  0  0  0
   13.6597   38.7548   -9.5959 H   0  0  0  0  0  0
   14.6499   39.7393  -10.6695 H   0  0  0  0  0  0
   13.6769   40.4963   -9.4114 H   0  0  0  0  0  0
  1  2  1  0  0  0
  1 42  1  0  0  0
  1 43  1  0  0  0
  1 44  1  0  0  0
  2 39  1  0  0  0
  2 21  1  0  0  0
  2  3  1  0  0  0
  3  4  1  0  0  0
  3 45  1  0  0  0
  3 46  1  0  0  0
  4  5  1  0  0  0
  4 47  1  0  0  0
  4 48  1  0  0  0
  5  6  1  0  0  0
  5 49  1  0  0  0
  5 50  1  0  0  0
  6  7  1  0  0  0
  6 51  1  0  0  0
  6 52  1  0  0  0
  7  8  1  0  0  0
  7 53  1  0  0  0
  7 54  1  0  0  0
  8  9  1  0  0  0
  8 55  1  0  0  0
  8 56  1  0  0  0
  9 10  1  0  0  0
  9 57  1  0  0  0
  9 58  1  0  0  0
 10 11  1  0  0  0
 10 59  1  0  0  0
 11 16  1  0  0  0
 11 12  2  0  0  0
 12 13  1  0  0  0
 12 60  1  0  0  0
 13 14  2  0  0  0
 13 17  1  0  0  0
 14 15  1  0  0  0
 14 61  1  0  0  0
 15 16  2  0  0  0
 15 62  1  0  0  0
 16 63  1  0  0  0
 17 18  2  0  0  0
 17 19  1  0  0  0
 19 20  1  0  0  0
 19 64  1  0  0  0
 20 40  1  0  0  0
 20 21  1  0  0  0
 20 22  1  0  0  0
 21 65  1  0  0  0
 21 66  1  0  0  0
 22 41  1  0  0  0
 22 23  1  0  0  0
 22 24  1  0  0  0
 23 67  1  0  0  0
 24 25  1  0  0  0
 24 68  1  0  0  0
 24 69  1  0  0  0
 25 26  1  0  0  0
 25 70  1  0  0  0
 26 27  1  0  0  0
 26 28  1  0  0  0
 26 29  1  0  0  0
 27 71  1  0  0  0
 27 72  1  0  0  0
 27 73  1  0  0  0
 28 74  1  0  0  0
 28 75  1  0  0  0
 28 76  1  0  0  0
 29 38  2  0  0  0
 29 30  1  0  0  0
 30 31  2  0  0  0
 30 77  1  0  0  0
 31 32  1  0  0  0
 31 37  1  0  0  0
 32 33  1  0  0  0
 32 78  1  0  0  0
 32 79  1  0  0  0
 33 34  1  0  0  0
 33 35  1  0  0  0
 33 36  1  0  0  0
 34 80  1  0  0  0
 34 81  1  0  0  0
 34 82  1  0  0  0
 35 83  1  0  0  0
 35 84  1  0  0  0
 35 85  1  0  0  0
 36 86  1  0  0  0
 36 87  1  0  0  0
 36 88  1  0  0  0
 37 38  1  0  0  0
M  END
> <s_m_source_file>
BACE_57.smi

> <i_m_source_file_index>
1

> <i_lp_mmshare_version>
42013

> <i_f3d_flags>
0

> <s_epik_input>
W05IXTFbQ0gyXVtDSDJdW0NIMl1bQ0gyXVtDSDJdW0NIMl1bQ0gyXVtDQEBIXShbQ0gzXSlbQ0gyXVtDQEhdKFtOSF1DKD1PKWMoW2NIXWMxMilbY0hdW2NIXVtjSF0yKVtDQEhdKFtPSF0pW0NIMl1bTkhdQyhbQ0gzXSkoW0NIM10pYzNbY0hdYyhvbjMpW0NIMl1DKFtDSDNdKShbQ0gzXSlbQ0gzXQ==

> <s_epik_cmdline>
J2VwaWtfcHl0aG9uJywgJy1waCcsICc3LjAnLCAnLXRuJywgJzgnLCAnLW1hJywgJzIwMCcsICctaW1hZScsICc8aW5maWxlLm1hZT4nLCAnLW9tYWUnLCAnPG91dGZpbGUubWFlPic=

> <r_epik_Ionization_Penalty>
  0.7072

> <r_epik_Ionization_Penalty_Charging>
  0.0000

> <r_epik_Ionization_Penalty_Neutral>
  0.7072

> <r_epik_State_Penalty>
  0.7296

> <r_epik_Charging_Adjusted_Penalty>
0.729607

> <i_epik_Tot_Q>
0

> <i_epik_Tot_abs_Q>
0

> <s_lp_Force_Field>
OPLS_2005

> <r_lp_Energy>
43.6663

> <b_lp_Chiralities_Consistent>
1

> <s_lp_Variant>
BACE_57.smi:1-2

> <chiral flag>
1

> <version>
0

> <s_i_glide_gridfile>
second_dock_grid_2

> <i_i_glide_lignum>
17

> <i_i_glide_rotatable_bonds>
8

> <r_i_docking_score>
-2.88478

> <r_i_glide_ligand_efficiency>
-0.0759154

> <r_i_glide_ligand_efficiency_sa>
-0.255226

> <r_i_glide_ligand_efficiency_ln>
-0.622044

> <r_glide_XP_GScore>
-3.61438

> <r_i_glide_gscore>
-3.61438

> <r_i_glide_evdw>
-39.0507

> <r_i_glide_ecoul>
-5.7849

> <r_i_glide_energy>
-44.8356

> <r_i_glide_einternal>
8.6776

> <r_i_glide_emodel>
-61.1621

> <r_glide_XP_HBond>
-0.453938

> <i_i_glide_confnum>
1

> <i_i_glide_posenum>
6

> <r_i_glide_eff_state_penalty>
0.7296

> <i_glide_XP_PoseRank>
1

$$$$
BACE_60.smi:1
                    3D
 Structure written by MMmdl.
 96 99  0  0  1  0            999 V2000
   12.8644   44.5962  -12.6760 C   0  0  0  0  0  0
   13.0534   44.9471  -11.3114 O   0  0  0  0  0  0
   13.1581   43.8210  -10.4418 C   0  0  0  0  0  0
   14.4005   42.9643  -10.6415 C   0  0  0  0  0  0
   14.3991   41.6378  -10.1668 C   0  0  0  0  0  0
   15.5436   40.8264  -10.2918 C   0  0  0  0  0  0
   16.6947   41.3480  -10.9255 C   0  0  0  0  0  0
   16.7141   42.6806  -11.3887 C   0  0  0  0  0  0
   15.5681   43.4879  -11.2383 C   0  0  0  0  0  0
   17.9586   43.2488  -11.9986 C   0  0  0  0  0  0
   18.0594   43.3485  -13.2214 O   0  0  0  0  0  0
   18.9362   43.6410  -11.1595 N   0  0  0  0  0  0
   18.8507   43.8012   -9.6977 C   0  0  1  0  0  0
   20.0986   43.1603   -9.0329 C   0  0  0  0  0  0
   19.9916   41.6424   -8.7739 C   0  0  2  0  0  0
   19.1868   41.3926   -7.4828 C   0  0  0  0  0  0
   21.4007   40.9998   -8.7064 C   0  0  0  0  0  0
   21.4872   39.4808   -8.4203 C   0  0  0  0  0  0
   21.3173   38.5406   -9.6329 C   0  0  0  0  0  0
   19.8985   38.4135  -10.2135 C   0  0  0  0  0  0
   18.8674   37.7433   -9.2840 C   0  0  0  0  0  0
   17.4241   37.9483   -9.7729 C   0  0  0  0  0  0
   16.7007   39.0861   -9.0416 C   0  0  0  0  0  0
   15.5100   39.5325   -9.7537 N   0  0  0  0  0  0
   18.5763   45.2884   -9.2959 C   0  0  2  0  0  0
   17.6111   45.8594  -10.1614 O   0  0  0  0  0  0
   19.7993   46.2413   -9.2756 C   0  0  0  0  0  0
   20.7074   46.0829   -8.1067 N   0  3  0  0  0  0
   20.3132   46.4871   -6.7204 C   0  0  0  0  0  0
   19.0842   47.4155   -6.5923 C   0  0  0  0  0  0
   18.4609   46.5270   -5.6400 O   0  0  0  0  0  0
   19.4076   45.4859   -5.9795 C   0  0  0  0  0  0
   21.5960   46.7579   -5.9424 C   0  0  0  0  0  0
   21.9224   48.0348   -5.4320 C   0  0  0  0  0  0
   23.0923   48.2402   -4.6590 C   0  0  0  0  0  0
   23.9668   47.1456   -4.4700 C   0  0  0  0  0  0
   23.6609   45.8800   -4.9981 C   0  0  0  0  0  0
   22.4753   45.6813   -5.7154 C   0  0  0  0  0  0
   23.4252   49.6211   -4.0623 C   0  0  0  0  0  0
   24.3103   50.3822   -5.0651 C   0  0  0  0  0  0
   22.1480   50.4448   -3.7765 C   0  0  0  0  0  0
   24.1940   49.5009   -2.7241 C   0  0  0  0  0  0
   17.9898   43.2554   -9.3169 H   0  0  0  0  0  0
   19.4475   41.2157   -9.6089 H   0  0  0  0  0  0
   18.0707   45.2988   -8.3357 H   0  0  0  0  0  0
   12.6234   45.4909  -13.2521 H   0  0  0  0  0  0
   12.0499   43.8842  -12.7973 H   0  0  0  0  0  0
   13.7550   44.1504  -13.1154 H   0  0  0  0  0  0
   12.2646   43.1988  -10.5355 H   0  0  0  0  0  0
   13.1679   44.1892   -9.4156 H   0  0  0  0  0  0
   13.5167   41.2469   -9.6781 H   0  0  0  0  0  0
   17.5728   40.7313  -11.0446 H   0  0  0  0  0  0
   15.5918   44.5159  -11.5715 H   0  0  0  0  0  0
   19.7769   43.9822  -11.5983 H   0  0  0  0  0  0
   20.9778   43.3792   -9.6425 H   0  0  0  0  0  0
   20.2954   43.6027   -8.0616 H   0  0  0  0  0  0
   18.9911   40.3347   -7.3165 H   0  0  0  0  0  0
   18.2118   41.8804   -7.5099 H   0  0  0  0  0  0
   19.7138   41.7610   -6.6030 H   0  0  0  0  0  0
   21.9595   41.5104   -7.9209 H   0  0  0  0  0  0
   21.9452   41.2122   -9.6276 H   0  0  0  0  0  0
   22.4950   39.3000   -8.0430 H   0  0  0  0  0  0
   20.8417   39.1831   -7.5972 H   0  0  0  0  0  0
   21.9974   38.8595  -10.4237 H   0  0  0  0  0  0
   21.6578   37.5454   -9.3431 H   0  0  0  0  0  0
   19.5423   39.3797  -10.5524 H   0  0  0  0  0  0
   19.9590   37.8202  -11.1243 H   0  0  0  0  0  0
   19.0785   36.6761   -9.2401 H   0  0  0  0  0  0
   18.9590   38.0979   -8.2600 H   0  0  0  0  0  0
   16.8509   37.0288   -9.6491 H   0  0  0  0  0  0
   17.4395   38.1509  -10.8400 H   0  0  0  0  0  0
   17.3823   39.9210   -8.8830 H   0  0  0  0  0  0
   16.4076   38.7539   -8.0440 H   0  0  0  0  0  0
   14.6436   39.2838   -9.2929 H   0  0  0  0  0  0
   17.2425   46.6327   -9.7613 H   0  0  0  0  0  0
   19.4958   47.2858   -9.3472 H   0  0  0  0  0  0
   20.3892   46.0655  -10.1769 H   0  0  0  0  0  0
   21.5167   46.6499   -8.3167 H   0  0  0  0  0  0
   19.2706   48.4004   -6.1694 H   0  0  0  0  0  0
   18.4436   47.5218   -7.4631 H   0  0  0  0  0  0
   19.8608   45.0476   -5.0879 H   0  0  0  0  0  0
   18.9505   44.6917   -6.5646 H   0  0  0  0  0  0
   21.2590   48.8597   -5.6235 H   0  0  0  0  0  0
   24.8905   47.2489   -3.9231 H   0  0  0  0  0  0
   24.3390   45.0541   -4.8420 H   0  0  0  0  0  0
   22.2542   44.6912   -6.0900 H   0  0  0  0  0  0
   25.2220   49.8255   -5.2860 H   0  0  0  0  0  0
   24.6130   51.3503   -4.6690 H   0  0  0  0  0  0
   23.7930   50.5481   -6.0096 H   0  0  0  0  0  0
   21.4376   49.8764   -3.1738 H   0  0  0  0  0  0
   21.6351   50.7597   -4.6854 H   0  0  0  0  0  0
   22.3793   51.3527   -3.2199 H   0  0  0  0  0  0
   23.6596   48.8780   -2.0063 H   0  0  0  0  0  0
   24.3360   50.4790   -2.2626 H   0  0  0  0  0  0
   25.1924   49.0823   -2.8504 H   0  0  0  0  0  0
   21.0249   45.1241   -8.0698 H   0  0  0  0  0  0
  1  2  1  0  0  0
  1 46  1  0  0  0
  1 47  1  0  0  0
  1 48  1  0  0  0
  2  3  1  0  0  0
  3  4  1  0  0  0
  3 49  1  0  0  0
  3 50  1  0  0  0
  4  9  1  0  0  0
  4  5  2  0  0  0
  5  6  1  0  0  0
  5 51  1  0  0  0
  6 24  1  0  0  0
  6  7  2  0  0  0
  7  8  1  0  0  0
  7 52  1  0  0  0
  8  9  2  0  0  0
  8 10  1  0  0  0
  9 53  1  0  0  0
 10 11  2  0  0  0
 10 12  1  0  0  0
 12 13  1  0  0  0
 12 54  1  0  0  0
 13 43  1  0  0  0
 13 14  1  0  0  0
 13 25  1  0  0  0
 14 15  1  0  0  0
 14 55  1  0  0  0
 14 56  1  0  0  0
 15 44  1  0  0  0
 15 16  1  0  0  0
 15 17  1  0  0  0
 16 57  1  0  0  0
 16 58  1  0  0  0
 16 59  1  0  0  0
 17 18  1  0  0  0
 17 60  1  0  0  0
 17 61  1  0  0  0
 18 19  1  0  0  0
 18 62  1  0  0  0
 18 63  1  0  0  0
 19 20  1  0  0  0
 19 64  1  0  0  0
 19 65  1  0  0  0
 20 21  1  0  0  0
 20 66  1  0  0  0
 20 67  1  0  0  0
 21 22  1  0  0  0
 21 68  1  0  0  0
 21 69  1  0  0  0
 22 23  1  0  0  0
 22 70  1  0  0  0
 22 71  1  0  0  0
 23 24  1  0  0  0
 23 72  1  0  0  0
 23 73  1  0  0  0
 24 74  1  0  0  0
 25 45  1  0  0  0
 25 26  1  0  0  0
 25 27  1  0  0  0
 26 75  1  0  0  0
 27 28  1  0  0  0
 27 76  1  0  0  0
 27 77  1  0  0  0
 28 29  1  0  0  0
 28 78  1  0  0  0
 28 96  1  0  0  0
 29 32  1  0  0  0
 29 30  1  0  0  0
 29 33  1  0  0  0
 30 31  1  0  0  0
 30 79  1  0  0  0
 30 80  1  0  0  0
 31 32  1  0  0  0
 32 81  1  0  0  0
 32 82  1  0  0  0
 33 38  1  0  0  0
 33 34  2  0  0  0
 34 35  1  0  0  0
 34 83  1  0  0  0
 35 36  2  0  0  0
 35 39  1  0  0  0
 36 37  1  0  0  0
 36 84  1  0  0  0
 37 38  2  0  0  0
 37 85  1  0  0  0
 38 86  1  0  0  0
 39 40  1  0  0  0
 39 41  1  0  0  0
 39 42  1  0  0  0
 40 87  1  0  0  0
 40 88  1  0  0  0
 40 89  1  0  0  0
 41 90  1  0  0  0
 41 91  1  0  0  0
 41 92  1  0  0  0
 42 93  1  0  0  0
 42 94  1  0  0  0
 42 95  1  0  0  0
M  CHG  1  28   1
M  END
> <s_m_source_file>
BACE_60.smi

> <i_m_source_file_index>
1

> <i_lp_mmshare_version>
42013

> <i_f3d_flags>
0

> <s_epik_input>
W2NIXTFbY0hdW2NIXWMoQyhbQ0gzXSkoW0NIM10pW0NIM10pW2NIXWMxQzIoW0NIMl1PW0NIMl0yKVtOSF1bQ0gyXVtDQEBIXShbT0hdKVtDQEBIXShbTkhdQyg9TyljKFtjSF0zKVtjSF1jKFtjSF1jMzQpW0NIMl1PW0NIM10pW0NIMl1bQ0BIXShbQ0gzXSlbQ0gyXVtDSDJdW0NIMl1bQ0gyXVtDSDJdW0NIMl1bQ0gyXVtOSF00

> <s_epik_cmdline>
J2VwaWtfcHl0aG9uJywgJy1waCcsICc3LjAnLCAnLXRuJywgJzgnLCAnLW1hJywgJzIwMCcsICctaW1hZScsICc8aW5maWxlLm1hZT4nLCAnLW9tYWUnLCAnPG91dGZpbGUubWFlPic=

> <r_epik_Ionization_Penalty>
  0.2026

> <r_epik_Ionization_Penalty_Charging>
  0.2020

> <r_epik_Ionization_Penalty_Neutral>
  0.0005

> <r_epik_State_Penalty>
  0.1919

> <r_epik_Charging_Adjusted_Penalty>
0.393931

> <i_epik_Tot_Q>
1

> <i_epik_Tot_abs_Q>
1

> <s_lp_Force_Field>
OPLS_2005

> <r_lp_Energy>
50.3916

> <b_lp_Chiralities_Consistent>
1

> <s_lp_Variant>
BACE_60.smi:1-1

> <chiral flag>
1

> <version>
0

> <s_i_glide_gridfile>
second_dock_grid_2

> <i_i_glide_lignum>
18

> <i_i_glide_rotatable_bonds>
9

> <r_i_docking_score>
-3.99174

> <r_i_glide_ligand_efficiency>
-0.0950414

> <r_i_glide_ligand_efficiency_sa>
-0.330366

> <r_i_glide_ligand_efficiency_ln>
-0.842553

> <r_glide_XP_GScore>
-4.18364

> <r_i_glide_gscore>
-4.18364

> <r_i_glide_evdw>
-40.1435

> <r_i_glide_ecoul>
-13.4062

> <r_i_glide_energy>
-53.5497

> <r_i_glide_einternal>
3.57707

> <r_i_glide_emodel>
-74.9293

> <r_glide_XP_HBond>
-1.50588

> <i_i_glide_confnum>
1

> <i_i_glide_posenum>
7

> <r_i_glide_eff_state_penalty>
0.1919

> <i_glide_XP_PoseRank>
1

$$$$
