BACE_146.smi:1
                    3D
 Structure written by MMmdl.
 86 88  0  0  1  0            999 V2000
   22.3835   43.5610   -4.1872 C   0  0  0  0  0  0
   20.9549   43.4877   -4.7431 C   0  0  0  0  0  0
   20.9349   43.1754   -6.2446 C   0  0  0  0  0  0
   19.5830   42.9835   -6.7490 N   0  0  0  0  0  0
   18.7744   44.0420   -7.1856 C   0  0  0  0  0  0
   19.1804   45.3925   -7.1584 C   0  0  0  0  0  0
   18.2929   46.4121   -7.5615 C   0  0  0  0  0  0
   18.7483   47.8519   -7.4680 C   0  0  0  0  0  0
   19.2866   48.1278   -6.1838 O   0  0  0  0  0  0
   19.9931   49.3525   -6.1386 C   0  0  0  0  0  0
   17.0050   46.0855   -8.0404 C   0  0  0  0  0  0
   16.5933   44.7362   -8.0790 C   0  0  0  0  0  0
   17.4795   43.7310   -7.6395 C   0  0  0  0  0  0
   15.2013   44.3596   -8.4881 C   0  0  0  0  0  0
   14.2161   44.9496   -8.0423 O   0  0  0  0  0  0
   15.1367   43.3192   -9.3336 N   0  0  0  0  0  0
   14.0150   42.3888   -9.4809 C   0  0  1  0  0  0
   12.7301   42.9701  -10.1271 C   0  0  0  0  0  0
   12.8549   43.6638  -11.4778 C   0  0  0  0  0  0
   12.2311   43.0962  -12.6067 C   0  0  0  0  0  0
   12.2550   43.7503  -13.8524 C   0  0  0  0  0  0
   12.8597   45.0317  -13.9369 C   0  0  0  0  0  0
   13.4970   45.6015  -12.8261 C   0  0  0  0  0  0
   13.5081   44.9084  -11.6041 C   0  0  0  0  0  0
   11.6342   43.1196  -14.9055 O   0  0  0  0  0  0
   11.9716   43.5372  -16.2223 C   0  0  0  0  0  0
   14.5521   41.0232  -10.0248 C   0  0  2  0  0  0
   14.0600   40.7187  -11.3221 O   0  0  0  0  0  0
   14.3196   39.8152   -9.0754 C   0  0  0  0  0  0
   14.8851   40.0571   -7.7178 N   0  3  0  0  0  0
   15.8412   39.0515   -7.2008 C   0  0  0  0  0  0
   16.9788   38.7440   -8.1719 C   0  0  0  0  0  0
   17.7349   39.7779   -8.7696 C   0  0  0  0  0  0
   18.7171   39.4774   -9.7441 C   0  0  0  0  0  0
   18.9825   38.1310  -10.0588 C   0  0  0  0  0  0
   18.2585   37.0960   -9.4402 C   0  0  0  0  0  0
   17.2574   37.4028   -8.5049 C   0  0  0  0  0  0
   19.4942   40.5676  -10.4748 C   0  0  0  0  0  0
   18.6236   41.7742  -10.8692 C   0  0  0  0  0  0
   20.7401   40.9891   -9.6868 C   0  0  0  0  0  0
   13.6854   42.2096   -8.4607 H   0  0  0  0  0  0
   15.6304   41.0997  -10.1622 H   0  0  0  0  0  0
   22.3780   43.7507   -3.1131 H   0  0  0  0  0  0
   22.9543   44.3602   -4.6655 H   0  0  0  0  0  0
   22.9175   42.6239   -4.3541 H   0  0  0  0  0  0
   20.4014   42.7178   -4.2033 H   0  0  0  0  0  0
   20.4373   44.4283   -4.5528 H   0  0  0  0  0  0
   21.4632   43.9405   -6.8132 H   0  0  0  0  0  0
   21.4832   42.2478   -6.4219 H   0  0  0  0  0  0
   19.1153   42.1292   -6.4637 H   0  0  0  0  0  0
   20.1583   45.6717   -6.7963 H   0  0  0  0  0  0
   19.5013   48.0077   -8.2416 H   0  0  0  0  0  0
   17.9219   48.5335   -7.6743 H   0  0  0  0  0  0
   20.3435   49.5386   -5.1235 H   0  0  0  0  0  0
   19.3536   50.1798   -6.4404 H   0  0  0  0  0  0
   20.8672   49.3261   -6.7914 H   0  0  0  0  0  0
   16.3245   46.8639   -8.3509 H   0  0  0  0  0  0
   17.1472   42.7062   -7.6070 H   0  0  0  0  0  0
   16.0198   43.0075   -9.7119 H   0  0  0  0  0  0
   11.9819   42.1773  -10.1921 H   0  0  0  0  0  0
   12.2955   43.6993   -9.4419 H   0  0  0  0  0  0
   11.7194   42.1508  -12.5306 H   0  0  0  0  0  0
   12.8594   45.5785  -14.8667 H   0  0  0  0  0  0
   13.9756   46.5654  -12.9097 H   0  0  0  0  0  0
   14.0040   45.3517  -10.7571 H   0  0  0  0  0  0
   11.5014   42.8649  -16.9404 H   0  0  0  0  0  0
   13.0497   43.4922  -16.3921 H   0  0  0  0  0  0
   11.6101   44.5446  -16.4310 H   0  0  0  0  0  0
   13.1660   40.3790  -11.2392 H   0  0  0  0  0  0
   13.2600   39.5878   -8.9844 H   0  0  0  0  0  0
   14.7501   38.9174   -9.5189 H   0  0  0  0  0  0
   15.3573   40.9471   -7.7167 H   0  0  0  0  0  0
   16.2522   39.3959   -6.2508 H   0  0  0  0  0  0
   15.2682   38.1517   -6.9863 H   0  0  0  0  0  0
   17.5349   40.8022   -8.5062 H   0  0  0  0  0  0
   19.7347   37.8843  -10.7921 H   0  0  0  0  0  0
   18.4585   36.0665   -9.6974 H   0  0  0  0  0  0
   16.6992   36.6028   -8.0413 H   0  0  0  0  0  0
   19.8480   40.1305  -11.4093 H   0  0  0  0  0  0
   19.1971   42.4784  -11.4717 H   0  0  0  0  0  0
   18.2624   42.3196   -9.9981 H   0  0  0  0  0  0
   17.7615   41.4612  -11.4625 H   0  0  0  0  0  0
   21.3078   41.7520  -10.2204 H   0  0  0  0  0  0
   21.4048   40.1408   -9.5247 H   0  0  0  0  0  0
   20.4766   41.3949   -8.7130 H   0  0  0  0  0  0
   14.1217   40.1211   -7.0551 H   0  0  0  0  0  0
  1  2  1  0  0  0
  1 43  1  0  0  0
  1 44  1  0  0  0
  1 45  1  0  0  0
  2  3  1  0  0  0
  2 46  1  0  0  0
  2 47  1  0  0  0
  3  4  1  0  0  0
  3 48  1  0  0  0
  3 49  1  0  0  0
  4  5  1  0  0  0
  4 50  1  0  0  0
  5 13  1  0  0  0
  5  6  2  0  0  0
  6  7  1  0  0  0
  6 51  1  0  0  0
  7  8  1  0  0  0
  7 11  2  0  0  0
  8  9  1  0  0  0
  8 52  1  0  0  0
  8 53  1  0  0  0
  9 10  1  0  0  0
 10 54  1  0  0  0
 10 55  1  0  0  0
 10 56  1  0  0  0
 11 12  1  0  0  0
 11 57  1  0  0  0
 12 13  2  0  0  0
 12 14  1  0  0  0
 13 58  1  0  0  0
 14 15  2  0  0  0
 14 16  1  0  0  0
 16 17  1  0  0  0
 16 59  1  0  0  0
 17 41  1  0  0  0
 17 18  1  0  0  0
 17 27  1  0  0  0
 18 19  1  0  0  0
 18 60  1  0  0  0
 18 61  1  0  0  0
 19 24  1  0  0  0
 19 20  2  0  0  0
 20 21  1  0  0  0
 20 62  1  0  0  0
 21 22  2  0  0  0
 21 25  1  0  0  0
 22 23  1  0  0  0
 22 63  1  0  0  0
 23 24  2  0  0  0
 23 64  1  0  0  0
 24 65  1  0  0  0
 25 26  1  0  0  0
 26 66  1  0  0  0
 26 67  1  0  0  0
 26 68  1  0  0  0
 27 42  1  0  0  0
 27 28  1  0  0  0
 27 29  1  0  0  0
 28 69  1  0  0  0
 29 30  1  0  0  0
 29 70  1  0  0  0
 29 71  1  0  0  0
 30 31  1  0  0  0
 30 72  1  0  0  0
 30 86  1  0  0  0
 31 32  1  0  0  0
 31 73  1  0  0  0
 31 74  1  0  0  0
 32 37  1  0  0  0
 32 33  2  0  0  0
 33 34  1  0  0  0
 33 75  1  0  0  0
 34 35  2  0  0  0
 34 38  1  0  0  0
 35 36  1  0  0  0
 35 76  1  0  0  0
 36 37  2  0  0  0
 36 77  1  0  0  0
 37 78  1  0  0  0
 38 39  1  0  0  0
 38 40  1  0  0  0
 38 79  1  0  0  0
 39 80  1  0  0  0
 39 81  1  0  0  0
 39 82  1  0  0  0
 40 83  1  0  0  0
 40 84  1  0  0  0
 40 85  1  0  0  0
M  CHG  1  30   1
M  END
> <s_m_source_file>
BACE_146.smi

> <i_m_source_file_index>
1

> <i_lp_mmshare_version>
42013

> <i_f3d_flags>
0

> <s_epik_input>
W0NIM11bQ0gyXVtDSDJdW05IXWMxW2NIXWMoW0NIMl1PW0NIM10pW2NIXWMoW2NIXTEpQyg9TylbTkhdW0NAQEhdKFtDSDJdYzJbY0hdYyhPW0NIM10pW2NIXVtjSF1bY0hdMilbQ0BIXShbT0hdKVtDSDJdW05IXVtDSDJdYzNbY0hdYyhbQ0hdKFtDSDNdKVtDSDNdKVtjSF1bY0hdW2NIXTM=

> <s_epik_cmdline>
J2VwaWtfcHl0aG9uJywgJy1waCcsICc3LjAnLCAnLXRuJywgJzgnLCAnLW1hJywgJzIwMCcsICctaW1hZScsICc8aW5maWxlLm1hZT4nLCAnLW9tYWUnLCAnPG91dGZpbGUubWFlPic=

> <r_lp_tautomer_probability>
1

> <r_epik_Ionization_Penalty>
  0.0196

> <r_epik_Ionization_Penalty_Charging>
  0.0191

> <r_epik_Ionization_Penalty_Neutral>
  0.0005

> <r_epik_State_Penalty>
  0.0153

> <r_epik_Charging_Adjusted_Penalty>
0.0343718

> <i_epik_Tot_Q>
1

> <i_epik_Tot_abs_Q>
1

> <s_lp_Force_Field>
OPLS_2005

> <r_lp_Energy>
31.4376

> <b_lp_Chiralities_Consistent>
1

> <s_lp_Variant>
BACE_146.smi:1-1

> <chiral flag>
1

> <version>
0

> <s_i_glide_gridfile>
second_dock_grid_2

> <i_i_glide_lignum>
71

> <i_i_glide_rotatable_bonds>
18

> <r_i_docking_score>
-5.25337

> <r_i_glide_ligand_efficiency>
-0.131334

> <r_i_glide_ligand_efficiency_sa>
-0.449157

> <r_i_glide_ligand_efficiency_ln>
-1.12039

> <r_glide_XP_GScore>
-5.26867

> <r_i_glide_gscore>
-5.26867

> <r_i_glide_evdw>
-32.6993

> <r_i_glide_ecoul>
-25.0007

> <r_i_glide_energy>
-57.7

> <r_i_glide_einternal>
14.3648

> <r_i_glide_emodel>
-73.6304

> <r_glide_XP_HBond>
-1.25264

> <i_i_glide_confnum>
1

> <i_i_glide_posenum>
14

> <r_i_glide_eff_state_penalty>
0.0153

> <i_glide_XP_PoseRank>
1

$$$$
BACE_146.smi:1
                    3D
 Structure written by MMmdl.
 85 87  0  0  1  0            999 V2000
   20.0869   41.1585   -2.0714 C   0  0  0  0  0  0
   21.1818   41.0299   -3.1401 C   0  0  0  0  0  0
   21.9349   42.3501   -3.3809 C   0  0  0  0  0  0
   21.1068   43.3500   -4.0402 N   0  0  0  0  0  0
   20.7525   43.2418   -5.3957 C   0  0  0  0  0  0
   21.3804   42.3272   -6.2678 C   0  0  0  0  0  0
   21.0007   42.2481   -7.6208 C   0  0  0  0  0  0
   21.6911   41.2707   -8.5483 C   0  0  0  0  0  0
   22.9673   40.8596   -8.0784 O   0  0  0  0  0  0
   23.1043   39.4493   -8.0359 C   0  0  0  0  0  0
   19.9430   43.0472   -8.1006 C   0  0  0  0  0  0
   19.2892   43.9584   -7.2395 C   0  0  0  0  0  0
   19.7312   44.0716   -5.9024 C   0  0  0  0  0  0
   18.1798   44.8372   -7.7429 C   0  0  0  0  0  0
   18.0428   45.9792   -7.3045 O   0  0  0  0  0  0
   17.3578   44.2874   -8.6561 N   0  0  0  0  0  0
   16.2915   44.9849   -9.3834 C   0  0  1  0  0  0
   16.5036   44.7654  -10.8973 C   0  0  0  0  0  0
   15.5788   45.5910  -11.7806 C   0  0  0  0  0  0
   16.0041   46.8460  -12.2678 C   0  0  0  0  0  0
   15.1550   47.6286  -13.0910 C   0  0  0  0  0  0
   13.8688   47.1435  -13.3978 C   0  0  0  0  0  0
   13.4397   45.8949  -12.9145 C   0  0  0  0  0  0
   14.2983   45.1121  -12.1226 C   0  0  0  0  0  0
   15.4971   48.8587  -13.6072 O   0  0  0  0  0  0
   16.8179   49.3307  -13.3861 C   0  0  0  0  0  0
   14.8748   44.5888   -8.8682 C   0  0  2  0  0  0
   14.6573   45.3488   -7.6925 O   0  0  0  0  0  0
   14.5991   43.0852   -8.5904 C   0  0  0  0  0  0
   13.7613   42.4466   -9.6280 N   0  0  0  0  0  0
   14.4369   41.5324  -10.5560 C   0  0  0  0  0  0
   15.1549   40.3822   -9.8741 C   0  0  0  0  0  0
   16.5335   40.1852  -10.0940 C   0  0  0  0  0  0
   17.2391   39.1717   -9.4009 C   0  0  0  0  0  0
   16.5364   38.3797   -8.4640 C   0  0  0  0  0  0
   15.1561   38.5500   -8.2695 C   0  0  0  0  0  0
   14.4606   39.5308   -8.9932 C   0  0  0  0  0  0
   18.7452   38.9646   -9.5838 C   0  0  0  0  0  0
   19.1331   37.4877   -9.7616 C   0  0  0  0  0  0
   19.3664   39.7897  -10.7296 C   0  0  0  0  0  0
   16.4105   46.0614   -9.2397 H   0  0  0  0  0  0
   14.1074   44.9502   -9.5442 H   0  0  0  0  0  0
   19.6843   40.1840   -1.8002 H   0  0  0  0  0  0
   19.2624   41.7761   -2.4274 H   0  0  0  0  0  0
   20.4600   41.6214   -1.1611 H   0  0  0  0  0  0
   21.9030   40.2717   -2.8399 H   0  0  0  0  0  0
   20.7433   40.6571   -4.0662 H   0  0  0  0  0  0
   22.2729   42.7579   -2.4282 H   0  0  0  0  0  0
   22.8417   42.1765   -3.9577 H   0  0  0  0  0  0
   20.8436   44.1766   -3.5057 H   0  0  0  0  0  0
   22.1688   41.6803   -5.9160 H   0  0  0  0  0  0
   21.0261   40.4230   -8.6614 H   0  0  0  0  0  0
   21.8102   41.7157   -9.5366 H   0  0  0  0  0  0
   24.1307   39.1896   -7.7770 H   0  0  0  0  0  0
   22.8609   39.0000   -9.0010 H   0  0  0  0  0  0
   22.4448   39.0163   -7.2806 H   0  0  0  0  0  0
   19.6471   42.9615   -9.1358 H   0  0  0  0  0  0
   19.2599   44.7811   -5.2417 H   0  0  0  0  0  0
   17.5165   43.3182   -8.8872 H   0  0  0  0  0  0
   17.5317   45.0241  -11.1567 H   0  0  0  0  0  0
   16.4071   43.7139  -11.1505 H   0  0  0  0  0  0
   16.9907   47.1887  -11.9958 H   0  0  0  0  0  0
   13.2113   47.7289  -14.0249 H   0  0  0  0  0  0
   12.4613   45.5233  -13.1747 H   0  0  0  0  0  0
   13.9623   44.1475  -11.7729 H   0  0  0  0  0  0
   16.9524   50.2818  -13.9029 H   0  0  0  0  0  0
   17.5620   48.6358  -13.7772 H   0  0  0  0  0  0
   17.0054   49.5026  -12.3262 H   0  0  0  0  0  0
   15.2600   45.0213   -7.0342 H   0  0  0  0  0  0
   15.5164   42.5269   -8.4104 H   0  0  0  0  0  0
   14.0580   43.0073   -7.6449 H   0  0  0  0  0  0
   13.0387   41.9010   -9.1483 H   0  0  0  0  0  0
   13.6990   41.1006  -11.2309 H   0  0  0  0  0  0
   15.1363   42.0719  -11.1871 H   0  0  0  0  0  0
   17.0406   40.8407  -10.7839 H   0  0  0  0  0  0
   17.0449   37.6358   -7.8672 H   0  0  0  0  0  0
   14.6392   37.9370   -7.5448 H   0  0  0  0  0  0
   13.3987   39.6494   -8.8398 H   0  0  0  0  0  0
   19.1825   39.2925   -8.6429 H   0  0  0  0  0  0
   20.2165   37.3712   -9.7745 H   0  0  0  0  0  0
   18.7512   37.0960  -10.7024 H   0  0  0  0  0  0
   18.7633   36.8586   -8.9552 H   0  0  0  0  0  0
   20.4310   39.5811  -10.8307 H   0  0  0  0  0  0
   19.2669   40.8604  -10.5542 H   0  0  0  0  0  0
   18.8998   39.5527  -11.6868 H   0  0  0  0  0  0
  1  2  1  0  0  0
  1 43  1  0  0  0
  1 44  1  0  0  0
  1 45  1  0  0  0
  2  3  1  0  0  0
  2 46  1  0  0  0
  2 47  1  0  0  0
  3  4  1  0  0  0
  3 48  1  0  0  0
  3 49  1  0  0  0
  4  5  1  0  0  0
  4 50  1  0  0  0
  5 13  1  0  0  0
  5  6  2  0  0  0
  6  7  1  0  0  0
  6 51  1  0  0  0
  7  8  1  0  0  0
  7 11  2  0  0  0
  8  9  1  0  0  0
  8 52  1  0  0  0
  8 53  1  0  0  0
  9 10  1  0  0  0
 10 54  1  0  0  0
 10 55  1  0  0  0
 10 56  1  0  0  0
 11 12  1  0  0  0
 11 57  1  0  0  0
 12 13  2  0  0  0
 12 14  1  0  0  0
 13 58  1  0  0  0
 14 15  2  0  0  0
 14 16  1  0  0  0
 16 17  1  0  0  0
 16 59  1  0  0  0
 17 41  1  0  0  0
 17 18  1  0  0  0
 17 27  1  0  0  0
 18 19  1  0  0  0
 18 60  1  0  0  0
 18 61  1  0  0  0
 19 24  1  0  0  0
 19 20  2  0  0  0
 20 21  1  0  0  0
 20 62  1  0  0  0
 21 22  2  0  0  0
 21 25  1  0  0  0
 22 23  1  0  0  0
 22 63  1  0  0  0
 23 24  2  0  0  0
 23 64  1  0  0  0
 24 65  1  0  0  0
 25 26  1  0  0  0
 26 66  1  0  0  0
 26 67  1  0  0  0
 26 68  1  0  0  0
 27 42  1  0  0  0
 27 28  1  0  0  0
 27 29  1  0  0  0
 28 69  1  0  0  0
 29 30  1  0  0  0
 29 70  1  0  0  0
 29 71  1  0  0  0
 30 31  1  0  0  0
 30 72  1  0  0  0
 31 32  1  0  0  0
 31 73  1  0  0  0
 31 74  1  0  0  0
 32 37  1  0  0  0
 32 33  2  0  0  0
 33 34  1  0  0  0
 33 75  1  0  0  0
 34 35  2  0  0  0
 34 38  1  0  0  0
 35 36  1  0  0  0
 35 76  1  0  0  0
 36 37  2  0  0  0
 36 77  1  0  0  0
 37 78  1  0  0  0
 38 39  1  0  0  0
 38 40  1  0  0  0
 38 79  1  0  0  0
 39 80  1  0  0  0
 39 81  1  0  0  0
 39 82  1  0  0  0
 40 83  1  0  0  0
 40 84  1  0  0  0
 40 85  1  0  0  0
M  END
> <s_m_source_file>
BACE_146.smi

> <i_m_source_file_index>
1

> <i_lp_mmshare_version>
42013

> <i_f3d_flags>
0

> <s_epik_input>
W0NIM11bQ0gyXVtDSDJdW05IXWMxW2NIXWMoW0NIMl1PW0NIM10pW2NIXWMoW2NIXTEpQyg9TylbTkhdW0NAQEhdKFtDSDJdYzJbY0hdYyhPW0NIM10pW2NIXVtjSF1bY0hdMilbQ0BIXShbT0hdKVtDSDJdW05IXVtDSDJdYzNbY0hdYyhbQ0hdKFtDSDNdKVtDSDNdKVtjSF1bY0hdW2NIXTM=

> <s_epik_cmdline>
J2VwaWtfcHl0aG9uJywgJy1waCcsICc3LjAnLCAnLXRuJywgJzgnLCAnLW1hJywgJzIwMCcsICctaW1hZScsICc8aW5maWxlLm1hZT4nLCAnLW9tYWUnLCAnPG91dGZpbGUubWFlPic=

> <r_lp_tautomer_probability>
1

> <r_epik_Ionization_Penalty>
  2.0445

> <r_epik_Ionization_Penalty_Charging>
  0.0000

> <r_epik_Ionization_Penalty_Neutral>
  2.0445

> <r_epik_State_Penalty>
  2.1759

> <r_epik_Charging_Adjusted_Penalty>
2.17586

> <i_epik_Tot_Q>
0

> <i_epik_Tot_abs_Q>
0

> <s_lp_Force_Field>
OPLS_2005

> <r_lp_Energy>
33.2537

> <b_lp_Chiralities_Consistent>
1

> <s_lp_Variant>
BACE_146.smi:1-2

> <chiral flag>
1

> <version>
0

> <s_i_glide_gridfile>
second_dock_grid_2

> <i_i_glide_lignum>
72

> <i_i_glide_rotatable_bonds>
18

> <r_i_docking_score>
1.24346

> <r_i_glide_ligand_efficiency>
0.0310865

> <r_i_glide_ligand_efficiency_sa>
0.106314

> <r_i_glide_ligand_efficiency_ln>
0.265193

> <r_glide_XP_GScore>
-0.932441

> <r_i_glide_gscore>
-0.932441

> <r_i_glide_evdw>
-42.6208

> <r_i_glide_ecoul>
-11.2862

> <r_i_glide_energy>
-53.907

> <r_i_glide_einternal>
0

> <r_i_glide_emodel>
-81.3844

> <r_glide_XP_HBond>
-1.95415

> <i_i_glide_confnum>
1

> <i_i_glide_posenum>
2

> <r_i_glide_eff_state_penalty>
2.1759

> <i_glide_XP_PoseRank>
1

$$$$
