BACE_49.smi:1
                    3D
 Structure written by MMmdl.
 76 78  0  0  1  0            999 V2000
   -3.6960    2.9215   -2.6533 C   0  0  0  0  0  0
   -2.4384    3.6876   -2.2133 C   0  0  0  0  0  0
   -1.3799    3.7214   -3.3260 C   0  0  0  0  0  0
   -1.8755    3.1361   -0.9089 C   0  0  0  0  0  0
   -1.8427    3.9494    0.2443 C   0  0  0  0  0  0
   -1.3435    3.4414    1.4589 C   0  0  0  0  0  0
   -0.8760    2.1158    1.5302 C   0  0  0  0  0  0
   -0.8986    1.2966    0.3828 C   0  0  0  0  0  0
   -0.3942   -0.1297    0.4590 C   0  0  0  0  0  0
    1.0798   -0.1600    0.4426 N   0  3  0  0  0  0
    1.6522   -1.5182    0.3617 C   0  0  0  0  0  0
    3.1958   -1.4681    0.3901 C   0  0  1  0  0  0
    3.5593   -1.2062    1.7331 O   0  0  0  0  0  0
    3.9055   -2.7724   -0.0802 C   0  0  2  0  0  0
    5.4336   -2.6520   -0.0399 C   0  0  0  0  0  0
    6.3867   -3.4035   -0.6348 C   0  0  0  0  0  0
    6.1278   -4.6015   -1.5365 C   0  0  0  0  0  0
    7.8601   -3.1003   -0.4025 C   0  0  0  0  0  0
    8.5529   -2.4047   -1.5900 C   0  0  0  0  0  0
    8.1692   -1.0447   -1.7664 O   0  0  0  0  0  0
    8.5001   -0.1820   -0.6853 C   0  0  0  0  0  0
    8.6872    1.2710   -1.1536 C   0  0  0  0  0  0
    7.4063    2.0013   -1.6045 C   0  0  0  0  0  0
    7.1141    1.9088   -3.1133 C   0  0  0  0  0  0
    6.5941    0.6076   -3.5088 N   0  0  0  0  0  0
    5.2577    0.2864   -3.2381 C   0  0  0  0  0  0
    4.9225   -1.0643   -3.0200 C   0  0  0  0  0  0
    3.5741   -1.3954   -2.7830 C   0  0  0  0  0  0
    2.6102   -0.3668   -2.7999 C   0  0  0  0  0  0
    3.0420    0.9582   -3.0002 C   0  0  0  0  0  0
    1.8764    2.2272   -2.9537 Cl  0  0  0  0  0  0
    4.3362    1.2778   -3.2109 N   0  0  0  0  0  0
    3.1611   -2.8116   -2.5415 C   0  0  0  0  0  0
    2.6304   -3.4511   -3.4458 O   0  0  0  0  0  0
    3.3576   -3.3463   -1.3198 N   0  0  0  0  0  0
   -1.3944    1.8101   -0.8342 C   0  0  0  0  0  0
    3.5498   -0.6278   -0.2067 H   0  0  0  0  0  0
    3.6755   -3.5280    0.6722 H   0  0  0  0  0  0
   -4.4631    2.9516   -1.8788 H   0  0  0  0  0  0
   -3.4776    1.8746   -2.8656 H   0  0  0  0  0  0
   -4.1239    3.3580   -3.5561 H   0  0  0  0  0  0
   -2.7410    4.7197   -2.0315 H   0  0  0  0  0  0
   -0.5102    4.3045   -3.0216 H   0  0  0  0  0  0
   -1.7796    4.1776   -4.2321 H   0  0  0  0  0  0
   -1.0379    2.7198   -3.5871 H   0  0  0  0  0  0
   -2.2052    4.9664    0.2049 H   0  0  0  0  0  0
   -1.3234    4.0691    2.3378 H   0  0  0  0  0  0
   -0.4982    1.7313    2.4663 H   0  0  0  0  0  0
   -0.7632   -0.6034    1.3698 H   0  0  0  0  0  0
   -0.7848   -0.7019   -0.3838 H   0  0  0  0  0  0
    1.4013    0.3690   -0.3555 H   0  0  0  0  0  0
    1.2696   -2.1398    1.1729 H   0  0  0  0  0  0
    1.2855   -1.9596   -0.5638 H   0  0  0  0  0  0
    3.3224   -1.9521    2.2635 H   0  0  0  0  0  0
    5.7884   -1.8445    0.5839 H   0  0  0  0  0  0
    6.9059   -5.3542   -1.4089 H   0  0  0  0  0  0
    6.1249   -4.2956   -2.5828 H   0  0  0  0  0  0
    5.1853   -5.0963   -1.3102 H   0  0  0  0  0  0
    7.9847   -2.5184    0.5106 H   0  0  0  0  0  0
    8.3677   -4.0436   -0.1990 H   0  0  0  0  0  0
    9.6354   -2.4507   -1.4631 H   0  0  0  0  0  0
    8.3383   -2.9426   -2.5138 H   0  0  0  0  0  0
    7.7276   -0.2373    0.0823 H   0  0  0  0  0  0
    9.4332   -0.5060   -0.2214 H   0  0  0  0  0  0
    9.0972    1.8251   -0.3084 H   0  0  0  0  0  0
    9.4509    1.3215   -1.9303 H   0  0  0  0  0  0
    6.5458    1.6848   -1.0135 H   0  0  0  0  0  0
    7.5404    3.0590   -1.3760 H   0  0  0  0  0  0
    6.4168    2.6943   -3.4053 H   0  0  0  0  0  0
    8.0252    2.1021   -3.6796 H   0  0  0  0  0  0
    7.2543   -0.1570   -3.4841 H   0  0  0  0  0  0
    5.6838   -1.8308   -3.0418 H   0  0  0  0  0  0
    1.5641   -0.5833   -2.6396 H   0  0  0  0  0  0
    3.0653   -4.3090   -1.2322 H   0  0  0  0  0  0
   -1.4139    1.1819   -1.7128 H   0  0  0  0  0  0
    1.4209    0.2866    1.2821 H   0  0  0  0  0  0
  1  2  1  0  0  0
  1 39  1  0  0  0
  1 40  1  0  0  0
  1 41  1  0  0  0
  2  3  1  0  0  0
  2  4  1  0  0  0
  2 42  1  0  0  0
  3 43  1  0  0  0
  3 44  1  0  0  0
  3 45  1  0  0  0
  4 36  1  0  0  0
  4  5  2  0  0  0
  5  6  1  0  0  0
  5 46  1  0  0  0
  6  7  2  0  0  0
  6 47  1  0  0  0
  7  8  1  0  0  0
  7 48  1  0  0  0
  8  9  1  0  0  0
  8 36  2  0  0  0
  9 10  1  0  0  0
  9 49  1  0  0  0
  9 50  1  0  0  0
 10 11  1  0  0  0
 10 51  1  0  0  0
 10 76  1  0  0  0
 11 12  1  0  0  0
 11 52  1  0  0  0
 11 53  1  0  0  0
 12 37  1  0  0  0
 12 13  1  0  0  0
 12 14  1  0  0  0
 13 54  1  0  0  0
 14 38  1  0  0  0
 14 35  1  0  0  0
 14 15  1  0  0  0
 15 16  2  0  0  0
 15 55  1  0  0  0
 16 17  1  0  0  0
 16 18  1  0  0  0
 17 56  1  0  0  0
 17 57  1  0  0  0
 17 58  1  0  0  0
 18 19  1  0  0  0
 18 59  1  0  0  0
 18 60  1  0  0  0
 19 20  1  0  0  0
 19 61  1  0  0  0
 19 62  1  0  0  0
 20 21  1  0  0  0
 21 22  1  0  0  0
 21 63  1  0  0  0
 21 64  1  0  0  0
 22 23  1  0  0  0
 22 65  1  0  0  0
 22 66  1  0  0  0
 23 24  1  0  0  0
 23 67  1  0  0  0
 23 68  1  0  0  0
 24 25  1  0  0  0
 24 69  1  0  0  0
 24 70  1  0  0  0
 25 26  1  0  0  0
 25 71  1  0  0  0
 26 32  1  0  0  0
 26 27  2  0  0  0
 27 28  1  0  0  0
 27 72  1  0  0  0
 28 29  2  0  0  0
 28 33  1  0  0  0
 29 30  1  0  0  0
 29 73  1  0  0  0
 30 31  1  0  0  0
 30 32  2  0  0  0
 33 34  2  0  0  0
 33 35  1  0  0  0
 35 74  1  0  0  0
 36 75  1  0  0  0
M  CHG  1  10   1
M  END
> <s_m_source_file>
BACE_49.smi

> <i_m_source_file_index>
1

> <i_lp_mmshare_version>
42013

> <i_f3d_flags>
0

> <s_epik_input>
W0NIM11bQ0hdKFtDSDNdKWMxW2NIXVtjSF1bY0hdYyhbY0hdMSlbQ0gyXVtOSF1bQ0gyXVtDQEBIXShbT0hdKVtDQEBIXShbTkhdQyg9TyljKFtjSF1jMjMpW2NIXWMoQ2wpbjMpL1tDSF09QyhcW0NIM10pW0NIMl1bQ0gyXU9bQ0gyXVtDSDJdW0NIMl1bQ0gyXVtOSF0y

> <s_epik_cmdline>
J2VwaWtfcHl0aG9uJywgJy1waCcsICc3LjAnLCAnLXRuJywgJzgnLCAnLW1hJywgJzIwMCcsICctaW1hZScsICc8aW5maWxlLm1hZT4nLCAnLW9tYWUnLCAnPG91dGZpbGUubWFlPic=

> <r_lp_tautomer_probability>
1

> <r_epik_Ionization_Penalty>
0.0201802

> <r_epik_Ionization_Penalty_Charging>
0.0201752

> <r_epik_Ionization_Penalty_Neutral>
5.07606e-06

> <r_epik_State_Penalty>
0.0161559

> <r_epik_Charging_Adjusted_Penalty>
0.036331

> <i_epik_Tot_Q>
1

> <i_epik_Tot_abs_Q>
1

> <s_lp_Force_Field>
OPLS_2005

> <r_lp_Energy>
29.4908

> <b_lp_Chiralities_Consistent>
1

> <s_lp_Variant>
BACE_49.smi:1-1

$$$$
BACE_49.smi:1
                    3D
 Structure written by MMmdl.
 75 77  0  0  1  0            999 V2000
    0.0588    6.0312   -1.8375 C   0  0  0  0  0  0
   -0.6003    4.7456   -2.3610 C   0  0  0  0  0  0
   -1.7649    5.0527   -3.3151 C   0  0  0  0  0  0
   -1.0306    3.8311   -1.2209 C   0  0  0  0  0  0
   -2.0109    4.2462   -0.2929 C   0  0  0  0  0  0
   -2.3967    3.3960    0.7610 C   0  0  0  0  0  0
   -1.8029    2.1269    0.8975 C   0  0  0  0  0  0
   -0.8209    1.7038   -0.0212 C   0  0  0  0  0  0
   -0.1748    0.3379    0.1329 C   0  0  0  0  0  0
    1.2851    0.3893    0.1642 N   0  0  0  0  0  0
    1.8380    1.0157    1.3641 C   0  0  0  0  0  0
    3.3803    1.0501    1.2997 C   0  0  1  0  0  0
    3.7089    2.1627    0.4873 O   0  0  0  0  0  0
    4.0940    1.2239    2.6737 C   0  0  2  0  0  0
    5.6213    1.2148    2.5352 C   0  0  0  0  0  0
    6.5916    0.9611    3.4419 C   0  0  0  0  0  0
    6.3667    0.6087    4.9052 C   0  0  0  0  0  0
    8.0558    1.0401    3.0341 C   0  0  0  0  0  0
    8.7279   -0.3334    2.8457 C   0  0  0  0  0  0
    8.2757   -1.0477    1.7000 O   0  0  0  0  0  0
    8.5275   -0.4109    0.4540 C   0  0  0  0  0  0
    8.6276   -1.4290   -0.6946 C   0  0  0  0  0  0
    7.3158   -2.1450   -1.0752 C   0  0  0  0  0  0
    7.0829   -3.4841   -0.3506 C   0  0  0  0  0  0
    6.6458   -3.3108    1.0273 N   0  0  0  0  0  0
    5.3138   -2.9583    1.2801 C   0  0  0  0  0  0
    5.0352   -2.1410    2.3931 C   0  0  0  0  0  0
    3.6941   -1.8071    2.6665 C   0  0  0  0  0  0
    2.6838   -2.3286    1.8341 C   0  0  0  0  0  0
    3.0577   -3.1212    0.7324 C   0  0  0  0  0  0
    1.8274   -3.7232   -0.3154 Cl  0  0  0  0  0  0
    4.3441   -3.4273    0.4600 N   0  0  0  0  0  0
    3.3332   -0.9431    3.8322 C   0  0  0  0  0  0
    2.8182   -1.4505    4.8257 O   0  0  0  0  0  0
    3.5561    0.3837    3.7548 N   0  0  0  0  0  0
   -0.4433    2.5553   -1.0814 C   0  0  0  0  0  0
    3.7570    0.1532    0.8070 H   0  0  0  0  0  0
    3.8604    2.2360    3.0067 H   0  0  0  0  0  0
    0.9188    5.8007   -1.2079 H   0  0  0  0  0  0
   -0.6361    6.6292   -1.2474 H   0  0  0  0  0  0
    0.4116    6.6531   -2.6607 H   0  0  0  0  0  0
    0.1553    4.2151   -2.9422 H   0  0  0  0  0  0
   -2.1914    4.1345   -3.7200 H   0  0  0  0  0  0
   -1.4298    5.6584   -4.1574 H   0  0  0  0  0  0
   -2.5638    5.5995   -2.8137 H   0  0  0  0  0  0
   -2.4709    5.2190   -0.3843 H   0  0  0  0  0  0
   -3.1478    3.7185    1.4669 H   0  0  0  0  0  0
   -2.1020    1.4822    1.7110 H   0  0  0  0  0  0
   -0.5527   -0.1544    1.0300 H   0  0  0  0  0  0
   -0.4962   -0.2761   -0.7088 H   0  0  0  0  0  0
    1.6249    0.8814   -0.6561 H   0  0  0  0  0  0
    1.4461    2.0250    1.4968 H   0  0  0  0  0  0
    1.4984    0.4492    2.2295 H   0  0  0  0  0  0
    3.3631    2.9430    0.8927 H   0  0  0  0  0  0
    5.9608    1.4669    1.5413 H   0  0  0  0  0  0
    7.1703    1.0079    5.5245 H   0  0  0  0  0  0
    6.3475   -0.4730    5.0387 H   0  0  0  0  0  0
    5.4436    1.0310    5.2971 H   0  0  0  0  0  0
    8.1626    1.6448    2.1335 H   0  0  0  0  0  0
    8.5908    1.5955    3.8049 H   0  0  0  0  0  0
    9.8090   -0.2070    2.7765 H   0  0  0  0  0  0
    8.5552   -0.9559    3.7241 H   0  0  0  0  0  0
    7.7447    0.3189    0.2455 H   0  0  0  0  0  0
    9.4698    0.1376    0.4996 H   0  0  0  0  0  0
    8.9666   -0.8795   -1.5737 H   0  0  0  0  0  0
    9.4137   -2.1557   -0.4869 H   0  0  0  0  0  0
    6.4588   -1.4792   -0.9644 H   0  0  0  0  0  0
    7.3698   -2.3714   -2.1405 H   0  0  0  0  0  0
    6.3571   -4.0826   -0.9013 H   0  0  0  0  0  0
    8.0018   -4.0705   -0.3490 H   0  0  0  0  0  0
    7.3327   -2.9151    1.6538 H   0  0  0  0  0  0
    5.8343   -1.7844    3.0260 H   0  0  0  0  0  0
    1.6430   -2.1046    2.0185 H   0  0  0  0  0  0
    3.2868    0.9013    4.5786 H   0  0  0  0  0  0
    0.3071    2.2279   -1.7862 H   0  0  0  0  0  0
  1  2  1  0  0  0
  1 39  1  0  0  0
  1 40  1  0  0  0
  1 41  1  0  0  0
  2  3  1  0  0  0
  2  4  1  0  0  0
  2 42  1  0  0  0
  3 43  1  0  0  0
  3 44  1  0  0  0
  3 45  1  0  0  0
  4 36  1  0  0  0
  4  5  2  0  0  0
  5  6  1  0  0  0
  5 46  1  0  0  0
  6  7  2  0  0  0
  6 47  1  0  0  0
  7  8  1  0  0  0
  7 48  1  0  0  0
  8  9  1  0  0  0
  8 36  2  0  0  0
  9 10  1  0  0  0
  9 49  1  0  0  0
  9 50  1  0  0  0
 10 11  1  0  0  0
 10 51  1  0  0  0
 11 12  1  0  0  0
 11 52  1  0  0  0
 11 53  1  0  0  0
 12 37  1  0  0  0
 12 13  1  0  0  0
 12 14  1  0  0  0
 13 54  1  0  0  0
 14 38  1  0  0  0
 14 35  1  0  0  0
 14 15  1  0  0  0
 15 16  2  0  0  0
 15 55  1  0  0  0
 16 17  1  0  0  0
 16 18  1  0  0  0
 17 56  1  0  0  0
 17 57  1  0  0  0
 17 58  1  0  0  0
 18 19  1  0  0  0
 18 59  1  0  0  0
 18 60  1  0  0  0
 19 20  1  0  0  0
 19 61  1  0  0  0
 19 62  1  0  0  0
 20 21  1  0  0  0
 21 22  1  0  0  0
 21 63  1  0  0  0
 21 64  1  0  0  0
 22 23  1  0  0  0
 22 65  1  0  0  0
 22 66  1  0  0  0
 23 24  1  0  0  0
 23 67  1  0  0  0
 23 68  1  0  0  0
 24 25  1  0  0  0
 24 69  1  0  0  0
 24 70  1  0  0  0
 25 26  1  0  0  0
 25 71  1  0  0  0
 26 32  1  0  0  0
 26 27  2  0  0  0
 27 28  1  0  0  0
 27 72  1  0  0  0
 28 29  2  0  0  0
 28 33  1  0  0  0
 29 30  1  0  0  0
 29 73  1  0  0  0
 30 31  1  0  0  0
 30 32  2  0  0  0
 33 34  2  0  0  0
 33 35  1  0  0  0
 35 74  1  0  0  0
 36 75  1  0  0  0
M  END
> <s_m_source_file>
BACE_49.smi

> <i_m_source_file_index>
1

> <i_lp_mmshare_version>
42013

> <i_f3d_flags>
0

> <s_epik_input>
W0NIM11bQ0hdKFtDSDNdKWMxW2NIXVtjSF1bY0hdYyhbY0hdMSlbQ0gyXVtOSF1bQ0gyXVtDQEBIXShbT0hdKVtDQEBIXShbTkhdQyg9TyljKFtjSF1jMjMpW2NIXWMoQ2wpbjMpL1tDSF09QyhcW0NIM10pW0NIMl1bQ0gyXU9bQ0gyXVtDSDJdW0NIMl1bQ0gyXVtOSF0y

> <s_epik_cmdline>
J2VwaWtfcHl0aG9uJywgJy1waCcsICc3LjAnLCAnLXRuJywgJzgnLCAnLW1hJywgJzIwMCcsICctaW1hZScsICc8aW5maWxlLm1hZT4nLCAnLW9tYWUnLCAnPG91dGZpbGUubWFlPic=

> <r_lp_tautomer_probability>
1

> <r_epik_Ionization_Penalty>
2.01259

> <r_epik_Ionization_Penalty_Charging>
0

> <r_epik_Ionization_Penalty_Neutral>
2.01259

> <r_epik_State_Penalty>
2.14222

> <r_epik_Charging_Adjusted_Penalty>
2.14222

> <i_epik_Tot_Q>
0

> <i_epik_Tot_abs_Q>
0

> <s_lp_Force_Field>
OPLS_2005

> <r_lp_Energy>
39.4231

> <b_lp_Chiralities_Consistent>
1

> <s_lp_Variant>
BACE_49.smi:1-2

$$$$
