BACE_127.smi:1
                    3D
 Structure written by MMmdl.
 84 87  0  0  1  0            999 V2000
   -4.1580   -6.0314    5.1665 C   0  0  0  0  0  0
   -3.7764   -4.6754    5.0154 O   0  0  0  0  0  0
   -4.6705   -3.9479    4.1894 C   0  0  0  0  0  0
   -4.2510   -2.4974    4.0567 C   0  0  0  0  0  0
   -4.0529   -1.7162    5.2124 C   0  0  0  0  0  0
   -3.6893   -0.3596    5.0992 C   0  0  0  0  0  0
   -3.5074    0.2124    3.8227 C   0  0  0  0  0  0
   -3.6835   -0.5682    2.6561 C   0  0  0  0  0  0
   -4.0754   -1.9189    2.7829 C   0  0  0  0  0  0
   -3.4787    0.0234    1.2916 C   0  0  0  0  0  0
   -4.1395   -0.3596    0.3265 O   0  0  0  0  0  0
   -2.4830    0.9192    1.2065 N   0  0  0  0  0  0
   -2.0103    1.5843   -0.0097 C   0  0  1  0  0  0
   -2.4291    3.0795   -0.0065 C   0  0  0  0  0  0
   -2.3402    3.7604    1.3522 C   0  0  0  0  0  0
   -3.4976    3.9083    2.1447 C   0  0  0  0  0  0
   -3.4315    4.4889    3.4269 C   0  0  0  0  0  0
   -2.1778    4.9418    3.9078 C   0  0  0  0  0  0
   -1.0235    4.8181    3.1111 C   0  0  0  0  0  0
   -1.1033    4.2321    1.8348 C   0  0  0  0  0  0
   -4.6159    4.5820    4.1264 O   0  0  0  0  0  0
   -4.5796    4.7665    5.5381 C   0  0  0  0  0  0
   -4.1476    3.4749    6.2551 C   0  0  0  0  0  0
   -5.1268    2.3148    6.0080 C   0  0  0  0  0  0
   -4.7440    1.0171    6.7387 C   0  0  0  0  0  0
   -3.5104    0.4102    6.2530 N   0  0  0  0  0  0
   -0.4813    1.3733   -0.1672 C   0  0  2  0  0  0
   -0.0769    1.8813   -1.4248 O   0  0  0  0  0  0
   -0.0423   -0.1061   -0.1149 C   0  0  0  0  0  0
    1.4295   -0.2230   -0.1091 N   0  3  0  0  0  0
    1.9293   -1.6081   -0.0288 C   0  0  0  0  0  0
    3.4303   -1.6036   -0.0013 C   0  0  0  0  0  0
    4.3255   -1.6637   -1.1071 C   0  0  0  0  0  0
    5.5958   -1.6221   -0.7422 N   0  0  0  0  0  0
    5.5600   -1.5345    0.6045 N   0  0  0  0  0  0
    6.7999   -1.4672    1.3612 C   0  0  0  0  0  0
    7.2847   -0.0269    1.6476 C   0  0  0  0  0  0
    6.3021    0.7634    2.5276 C   0  0  0  0  0  0
    7.6154    0.7549    0.3652 C   0  0  0  0  0  0
    4.2652   -1.5353    1.0784 C   0  0  0  0  0  0
   -2.4745    1.1208   -0.8825 H   0  0  0  0  0  0
    0.0435    1.9219    0.6147 H   0  0  0  0  0  0
   -3.4405   -6.5449    5.8065 H   0  0  0  0  0  0
   -4.1784   -6.5448    4.2043 H   0  0  0  0  0  0
   -5.1422   -6.1147    5.6294 H   0  0  0  0  0  0
   -4.7206   -4.4112    3.2026 H   0  0  0  0  0  0
   -5.6761   -3.9777    4.6121 H   0  0  0  0  0  0
   -4.1934   -2.1581    6.1885 H   0  0  0  0  0  0
   -3.2264    1.2537    3.7481 H   0  0  0  0  0  0
   -4.2280   -2.5222    1.8993 H   0  0  0  0  0  0
   -2.0032    1.1577    2.0626 H   0  0  0  0  0  0
   -1.8599    3.6560   -0.7359 H   0  0  0  0  0  0
   -3.4657    3.1451   -0.3401 H   0  0  0  0  0  0
   -4.4492    3.5521    1.7771 H   0  0  0  0  0  0
   -2.0729    5.3966    4.8799 H   0  0  0  0  0  0
   -0.0735    5.1732    3.4824 H   0  0  0  0  0  0
   -0.2112    4.1413    1.2333 H   0  0  0  0  0  0
   -3.9613    5.6160    5.8255 H   0  0  0  0  0  0
   -5.5883    5.0301    5.8571 H   0  0  0  0  0  0
   -3.1437    3.1892    5.9412 H   0  0  0  0  0  0
   -4.0861    3.6689    7.3262 H   0  0  0  0  0  0
   -6.1172    2.6185    6.3485 H   0  0  0  0  0  0
   -5.2290    2.1275    4.9391 H   0  0  0  0  0  0
   -4.6301    1.2155    7.8048 H   0  0  0  0  0  0
   -5.5590    0.2969    6.6515 H   0  0  0  0  0  0
   -3.0620   -0.1110    6.9932 H   0  0  0  0  0  0
   -0.3265    2.7917   -1.4770 H   0  0  0  0  0  0
   -0.4098   -0.5864    0.7921 H   0  0  0  0  0  0
   -0.4568   -0.6601   -0.9586 H   0  0  0  0  0  0
    1.7834    0.1996   -0.9557 H   0  0  0  0  0  0
    1.5231   -2.0830    0.8652 H   0  0  0  0  0  0
    1.5531   -2.1734   -0.8822 H   0  0  0  0  0  0
    4.0900   -1.7296   -2.1592 H   0  0  0  0  0  0
    6.6520   -2.0018    2.3005 H   0  0  0  0  0  0
    7.5695   -2.0186    0.8186 H   0  0  0  0  0  0
    8.2134   -0.1189    2.2119 H   0  0  0  0  0  0
    5.3629    0.9574    2.0093 H   0  0  0  0  0  0
    6.7233    1.7280    2.8127 H   0  0  0  0  0  0
    6.0730    0.2217    3.4455 H   0  0  0  0  0  0
    6.7239    0.9437   -0.2330 H   0  0  0  0  0  0
    8.3248    0.2082   -0.2566 H   0  0  0  0  0  0
    8.0623    1.7211    0.6013 H   0  0  0  0  0  0
    4.0485   -1.4762    2.1350 H   0  0  0  0  0  0
    1.7879    0.2925    0.6818 H   0  0  0  0  0  0
  1  2  1  0  0  0
  1 43  1  0  0  0
  1 44  1  0  0  0
  1 45  1  0  0  0
  2  3  1  0  0  0
  3  4  1  0  0  0
  3 46  1  0  0  0
  3 47  1  0  0  0
  4  9  1  0  0  0
  4  5  2  0  0  0
  5  6  1  0  0  0
  5 48  1  0  0  0
  6 26  1  0  0  0
  6  7  2  0  0  0
  7  8  1  0  0  0
  7 49  1  0  0  0
  8  9  2  0  0  0
  8 10  1  0  0  0
  9 50  1  0  0  0
 10 11  2  0  0  0
 10 12  1  0  0  0
 12 13  1  0  0  0
 12 51  1  0  0  0
 13 41  1  0  0  0
 13 14  1  0  0  0
 13 27  1  0  0  0
 14 15  1  0  0  0
 14 52  1  0  0  0
 14 53  1  0  0  0
 15 20  1  0  0  0
 15 16  2  0  0  0
 16 17  1  0  0  0
 16 54  1  0  0  0
 17 18  2  0  0  0
 17 21  1  0  0  0
 18 19  1  0  0  0
 18 55  1  0  0  0
 19 20  2  0  0  0
 19 56  1  0  0  0
 20 57  1  0  0  0
 21 22  1  0  0  0
 22 23  1  0  0  0
 22 58  1  0  0  0
 22 59  1  0  0  0
 23 24  1  0  0  0
 23 60  1  0  0  0
 23 61  1  0  0  0
 24 25  1  0  0  0
 24 62  1  0  0  0
 24 63  1  0  0  0
 25 26  1  0  0  0
 25 64  1  0  0  0
 25 65  1  0  0  0
 26 66  1  0  0  0
 27 42  1  0  0  0
 27 28  1  0  0  0
 27 29  1  0  0  0
 28 67  1  0  0  0
 29 30  1  0  0  0
 29 68  1  0  0  0
 29 69  1  0  0  0
 30 31  1  0  0  0
 30 70  1  0  0  0
 30 84  1  0  0  0
 31 32  1  0  0  0
 31 71  1  0  0  0
 31 72  1  0  0  0
 32 40  2  0  0  0
 32 33  1  0  0  0
 33 34  2  0  0  0
 33 73  1  0  0  0
 34 35  1  0  0  0
 35 36  1  0  0  0
 35 40  1  0  0  0
 36 37  1  0  0  0
 36 74  1  0  0  0
 36 75  1  0  0  0
 37 38  1  0  0  0
 37 39  1  0  0  0
 37 76  1  0  0  0
 38 77  1  0  0  0
 38 78  1  0  0  0
 38 79  1  0  0  0
 39 80  1  0  0  0
 39 81  1  0  0  0
 39 82  1  0  0  0
 40 83  1  0  0  0
M  CHG  1  30   1
M  END
> <s_m_source_file>
BACE_127.smi

> <i_m_source_file_index>
1

> <i_lp_mmshare_version>
42013

> <i_f3d_flags>
0

> <s_epik_input>
W05IXTFbQ0gyXVtDSDJdW0NIMl1bQ0gyXU9jKFtjSF1bY0hdW2NIXTIpW2NIXWMyW0NIMl1bQ0BIXShbTkhdQyg9TyljKFtjSF0zKVtjSF1jKFtjSF1jMTMpW0NIMl1PW0NIM10pW0NASF0oW09IXSlbQ0gyXVtOSF1bQ0gyXWM0W2NIXW5uKFtjSF00KVtDSDJdW0NIXShbQ0gzXSlbQ0gzXQ==

> <s_epik_cmdline>
J2VwaWtfcHl0aG9uJywgJy1waCcsICc3LjAnLCAnLXRuJywgJzgnLCAnLW1hJywgJzIwMCcsICctaW1hZScsICc8aW5maWxlLm1hZT4nLCAnLW9tYWUnLCAnPG91dGZpbGUubWFlPic=

> <r_lp_tautomer_probability>
1

> <r_epik_Ionization_Penalty>
0.0639955

> <r_epik_Ionization_Penalty_Charging>
0.0636584

> <r_epik_Ionization_Penalty_Neutral>
0.000337081

> <r_epik_State_Penalty>
0.0554017

> <r_epik_Charging_Adjusted_Penalty>
0.11906

> <i_epik_Tot_Q>
1

> <i_epik_Tot_abs_Q>
1

> <s_lp_Force_Field>
OPLS_2005

> <r_lp_Energy>
30.7781

> <b_lp_Chiralities_Consistent>
1

> <s_lp_Variant>
BACE_127.smi:1-1

$$$$
BACE_127.smi:1
                    3D
 Structure written by MMmdl.
 83 86  0  0  1  0            999 V2000
   -2.5281    8.8508    3.2549 C   0  0  0  0  0  0
   -1.5217    8.8782    2.2548 O   0  0  0  0  0  0
   -2.0329    8.8077    0.9312 C   0  0  0  0  0  0
   -2.5842    7.4376    0.5776 C   0  0  0  0  0  0
   -3.9303    7.2955    0.1755 C   0  0  0  0  0  0
   -4.4484    6.0259   -0.1507 C   0  0  0  0  0  0
   -3.5919    4.9026   -0.0801 C   0  0  0  0  0  0
   -2.2415    5.0310    0.3031 C   0  0  0  0  0  0
   -1.7433    6.3060    0.6434 C   0  0  0  0  0  0
   -1.3743    3.8090    0.3936 C   0  0  0  0  0  0
   -0.4986    3.7084    1.2525 O   0  0  0  0  0  0
   -1.6321    2.8718   -0.5355 N   0  0  0  0  0  0
   -1.0768    1.5218   -0.5991 C   0  0  1  0  0  0
   -1.9778    0.5996   -1.4610 C   0  0  0  0  0  0
   -3.4561    0.6209   -1.0915 C   0  0  0  0  0  0
   -4.3826    1.3358   -1.8815 C   0  0  0  0  0  0
   -5.7624    1.3255   -1.5820 C   0  0  0  0  0  0
   -6.2108    0.5765   -0.4670 C   0  0  0  0  0  0
   -5.2894   -0.1276    0.3332 C   0  0  0  0  0  0
   -3.9162   -0.1060    0.0241 C   0  0  0  0  0  0
   -6.5825    2.0594   -2.4158 O   0  0  0  0  0  0
   -7.9836    2.1561   -2.1613 C   0  0  0  0  0  0
   -8.3753    3.0792   -0.9835 C   0  0  0  0  0  0
   -7.8315    4.5209   -1.0499 C   0  0  0  0  0  0
   -6.3384    4.5682   -0.7138 C   0  0  0  0  0  0
   -5.7964    5.9057   -0.5298 N   0  0  0  0  0  0
    0.4123    1.5367   -1.0360 C   0  0  2  0  0  0
    0.5058    1.8823   -2.4051 O   0  0  0  0  0  0
    1.0841    0.1650   -0.8426 C   0  0  0  0  0  0
    2.5337    0.2964   -0.7070 N   0  0  0  0  0  0
    3.2265   -0.9664   -0.4588 C   0  0  0  0  0  0
    3.0008   -1.4823    0.9385 C   0  0  0  0  0  0
    2.8918   -2.8389    1.3571 C   0  0  0  0  0  0
    2.6807   -2.9627    2.6575 N   0  0  0  0  0  0
    2.6515   -1.6935    3.1158 N   0  0  0  0  0  0
    2.4221   -1.4327    4.5255 C   0  0  0  0  0  0
    1.0162   -0.8599    4.8054 C   0  0  0  0  0  0
    0.8389   -0.5581    6.3002 C   0  0  0  0  0  0
   -0.1136   -1.7698    4.2915 C   0  0  0  0  0  0
    2.8571   -0.7817    2.1038 C   0  0  0  0  0  0
   -1.1162    1.1371    0.4219 H   0  0  0  0  0  0
    0.9552    2.2813   -0.4527 H   0  0  0  0  0  0
   -2.0670    8.9405    4.2382 H   0  0  0  0  0  0
   -3.0900    7.9163    3.2356 H   0  0  0  0  0  0
   -3.2256    9.6807    3.1350 H   0  0  0  0  0  0
   -2.7837    9.5836    0.7720 H   0  0  0  0  0  0
   -1.2153    9.0273    0.2442 H   0  0  0  0  0  0
   -4.5709    8.1642    0.1268 H   0  0  0  0  0  0
   -3.9621    3.9157   -0.3111 H   0  0  0  0  0  0
   -0.7145    6.4231    0.9529 H   0  0  0  0  0  0
   -2.3547    3.0829   -1.2085 H   0  0  0  0  0  0
   -1.8921    0.8684   -2.5144 H   0  0  0  0  0  0
   -1.6274   -0.4305   -1.3903 H   0  0  0  0  0  0
   -4.0344    1.8974   -2.7361 H   0  0  0  0  0  0
   -7.2560    0.5255   -0.2050 H   0  0  0  0  0  0
   -5.6389   -0.6936    1.1840 H   0  0  0  0  0  0
   -3.2195   -0.6591    0.6372 H   0  0  0  0  0  0
   -8.4353    2.5525   -3.0709 H   0  0  0  0  0  0
   -8.4173    1.1633   -2.0358 H   0  0  0  0  0  0
   -9.4643    3.1287   -0.9537 H   0  0  0  0  0  0
   -8.0854    2.6316   -0.0334 H   0  0  0  0  0  0
   -8.0214    4.9610   -2.0294 H   0  0  0  0  0  0
   -8.3747    5.1282   -0.3249 H   0  0  0  0  0  0
   -6.1589    3.9921    0.1951 H   0  0  0  0  0  0
   -5.7756    4.1031   -1.5203 H   0  0  0  0  0  0
   -6.4195    6.6989   -0.4773 H   0  0  0  0  0  0
    0.1458    2.7487   -2.5184 H   0  0  0  0  0  0
    0.6863   -0.2974    0.0613 H   0  0  0  0  0  0
    0.8318   -0.5062   -1.6646 H   0  0  0  0  0  0
    2.9192    0.7487   -1.5301 H   0  0  0  0  0  0
    2.9275   -1.7043   -1.2040 H   0  0  0  0  0  0
    4.2939   -0.8127   -0.6181 H   0  0  0  0  0  0
    2.9512   -3.7332    0.7548 H   0  0  0  0  0  0
    2.5727   -2.3562    5.0875 H   0  0  0  0  0  0
    3.1872   -0.7336    4.8654 H   0  0  0  0  0  0
    0.9334    0.0893    4.2739 H   0  0  0  0  0  0
    0.8953   -1.4687    6.8977 H   0  0  0  0  0  0
   -0.1264   -0.0901    6.4950 H   0  0  0  0  0  0
    1.6113    0.1237    6.6576 H   0  0  0  0  0  0
   -0.0603   -2.7592    4.7468 H   0  0  0  0  0  0
   -0.0672   -1.8976    3.2097 H   0  0  0  0  0  0
   -1.0924   -1.3493    4.5235 H   0  0  0  0  0  0
    2.8684    0.2818    2.2909 H   0  0  0  0  0  0
  1  2  1  0  0  0
  1 43  1  0  0  0
  1 44  1  0  0  0
  1 45  1  0  0  0
  2  3  1  0  0  0
  3  4  1  0  0  0
  3 46  1  0  0  0
  3 47  1  0  0  0
  4  9  1  0  0  0
  4  5  2  0  0  0
  5  6  1  0  0  0
  5 48  1  0  0  0
  6 26  1  0  0  0
  6  7  2  0  0  0
  7  8  1  0  0  0
  7 49  1  0  0  0
  8  9  2  0  0  0
  8 10  1  0  0  0
  9 50  1  0  0  0
 10 11  2  0  0  0
 10 12  1  0  0  0
 12 13  1  0  0  0
 12 51  1  0  0  0
 13 41  1  0  0  0
 13 14  1  0  0  0
 13 27  1  0  0  0
 14 15  1  0  0  0
 14 52  1  0  0  0
 14 53  1  0  0  0
 15 20  1  0  0  0
 15 16  2  0  0  0
 16 17  1  0  0  0
 16 54  1  0  0  0
 17 18  2  0  0  0
 17 21  1  0  0  0
 18 19  1  0  0  0
 18 55  1  0  0  0
 19 20  2  0  0  0
 19 56  1  0  0  0
 20 57  1  0  0  0
 21 22  1  0  0  0
 22 23  1  0  0  0
 22 58  1  0  0  0
 22 59  1  0  0  0
 23 24  1  0  0  0
 23 60  1  0  0  0
 23 61  1  0  0  0
 24 25  1  0  0  0
 24 62  1  0  0  0
 24 63  1  0  0  0
 25 26  1  0  0  0
 25 64  1  0  0  0
 25 65  1  0  0  0
 26 66  1  0  0  0
 27 42  1  0  0  0
 27 28  1  0  0  0
 27 29  1  0  0  0
 28 67  1  0  0  0
 29 30  1  0  0  0
 29 68  1  0  0  0
 29 69  1  0  0  0
 30 31  1  0  0  0
 30 70  1  0  0  0
 31 32  1  0  0  0
 31 71  1  0  0  0
 31 72  1  0  0  0
 32 40  2  0  0  0
 32 33  1  0  0  0
 33 34  2  0  0  0
 33 73  1  0  0  0
 34 35  1  0  0  0
 35 36  1  0  0  0
 35 40  1  0  0  0
 36 37  1  0  0  0
 36 74  1  0  0  0
 36 75  1  0  0  0
 37 38  1  0  0  0
 37 39  1  0  0  0
 37 76  1  0  0  0
 38 77  1  0  0  0
 38 78  1  0  0  0
 38 79  1  0  0  0
 39 80  1  0  0  0
 39 81  1  0  0  0
 39 82  1  0  0  0
 40 83  1  0  0  0
M  END
> <s_m_source_file>
BACE_127.smi

> <i_m_source_file_index>
1

> <i_lp_mmshare_version>
42013

> <i_f3d_flags>
0

> <s_epik_input>
W05IXTFbQ0gyXVtDSDJdW0NIMl1bQ0gyXU9jKFtjSF1bY0hdW2NIXTIpW2NIXWMyW0NIMl1bQ0BIXShbTkhdQyg9TyljKFtjSF0zKVtjSF1jKFtjSF1jMTMpW0NIMl1PW0NIM10pW0NASF0oW09IXSlbQ0gyXVtOSF1bQ0gyXWM0W2NIXW5uKFtjSF00KVtDSDJdW0NIXShbQ0gzXSlbQ0gzXQ==

> <s_epik_cmdline>
J2VwaWtfcHl0aG9uJywgJy1waCcsICc3LjAnLCAnLXRuJywgJzgnLCAnLW1hJywgJzIwMCcsICctaW1hZScsICc8aW5maWxlLm1hZT4nLCAnLW9tYWUnLCAnPG91dGZpbGUubWFlPic=

> <r_lp_tautomer_probability>
1

> <r_epik_Ionization_Penalty>
1.35394

> <r_epik_Ionization_Penalty_Charging>
0

> <r_epik_Ionization_Penalty_Neutral>
1.35394

> <r_epik_State_Penalty>
1.43151

> <r_epik_Charging_Adjusted_Penalty>
1.43151

> <i_epik_Tot_Q>
0

> <i_epik_Tot_abs_Q>
0

> <s_lp_Force_Field>
OPLS_2005

> <r_lp_Energy>
38.3918

> <b_lp_Chiralities_Consistent>
1

> <s_lp_Variant>
BACE_127.smi:1-2

$$$$
