BACE_117.smi:1
                    3D
 Structure written by MMmdl.
 92 95  0  0  1  0            999 V2000
   -1.0909    9.8267    2.8046 C   0  0  0  0  0  0
   -1.7099    8.6410    2.3373 O   0  0  0  0  0  0
   -2.3013    8.8023    1.0579 C   0  0  0  0  0  0
   -2.9363    7.5177    0.5601 C   0  0  0  0  0  0
   -4.1794    7.5563   -0.1091 C   0  0  0  0  0  0
   -4.7747    6.3695   -0.5830 C   0  0  0  0  0  0
   -4.0961    5.1439   -0.3899 C   0  0  0  0  0  0
   -2.8455    5.0905    0.2577 C   0  0  0  0  0  0
   -2.2711    6.2852    0.7401 C   0  0  0  0  0  0
   -2.1734    3.7655    0.4711 C   0  0  0  0  0  0
   -1.4958    3.5458    1.4751 O   0  0  0  0  0  0
   -2.3646    2.8739   -0.5171 N   0  0  0  0  0  0
   -1.9766    1.4657   -0.5105 C   0  0  1  0  0  0
   -2.8147    0.6605   -1.5381 C   0  0  0  0  0  0
   -4.3208    0.8771   -1.4466 C   0  0  0  0  0  0
   -4.9852    1.7011   -2.3814 C   0  0  0  0  0  0
   -6.3858    1.8765   -2.3386 C   0  0  0  0  0  0
   -7.1254    1.2029   -1.3364 C   0  0  0  0  0  0
   -6.4669    0.3902   -0.3925 C   0  0  0  0  0  0
   -5.0695    0.2268   -0.4457 C   0  0  0  0  0  0
   -6.9353    2.7066   -3.2953 O   0  0  0  0  0  0
   -8.3348    2.9878   -3.3023 C   0  0  0  0  0  0
   -8.8154    3.9630   -2.2018 C   0  0  0  0  0  0
   -8.0877    5.3215   -2.1433 C   0  0  0  0  0  0
   -6.6873    5.1750   -1.5423 C   0  0  0  0  0  0
   -6.0235    6.4301   -1.2252 N   0  0  0  0  0  0
   -0.4399    1.3023   -0.6656 C   0  0  2  0  0  0
   -0.0512    1.5533   -2.0038 O   0  0  0  0  0  0
    0.0483   -0.1047   -0.2787 C   0  0  0  0  0  0
    1.5269   -0.1370   -0.1771 N   0  3  0  0  0  0
    2.2090   -1.4477    0.0088 C   0  0  0  0  0  0
    1.9476   -2.3946   -1.1842 C   0  0  0  0  0  0
    3.7221   -1.1478    0.0203 C   0  0  0  0  0  0
    1.8091   -2.1077    1.3225 C   0  0  0  0  0  0
    2.5712   -2.2509    2.5191 C   0  0  0  0  0  0
    1.7251   -2.8853    3.3829 C   0  0  0  0  0  0
    1.8673   -3.3286    4.8052 C   0  0  0  0  0  0
    1.3560   -2.3273    5.8737 C   0  0  0  0  0  0
    2.2621   -1.0804    5.9032 C   0  0  0  0  0  0
    1.4059   -3.0089    7.2544 C   0  0  0  0  0  0
   -0.0962   -1.8897    5.5910 C   0  0  0  0  0  0
    0.5319   -3.1151    2.7812 O   0  0  0  0  0  0
    0.5953   -2.6209    1.4753 N   0  0  0  0  0  0
   -2.2498    1.0916    0.4782 H   0  0  0  0  0  0
    0.0718    2.0231   -0.0270 H   0  0  0  0  0  0
   -0.6494    9.6477    3.7849 H   0  0  0  0  0  0
   -1.8146   10.6366    2.9042 H   0  0  0  0  0  0
   -0.2951   10.1475    2.1312 H   0  0  0  0  0  0
   -3.0544    9.5908    1.1006 H   0  0  0  0  0  0
   -1.5455    9.1125    0.3347 H   0  0  0  0  0  0
   -4.6826    8.5017   -0.2524 H   0  0  0  0  0  0
   -4.5317    4.2171   -0.7298 H   0  0  0  0  0  0
   -1.3170    6.2607    1.2472 H   0  0  0  0  0  0
   -2.9107    3.1797   -1.3097 H   0  0  0  0  0  0
   -2.5052    0.9088   -2.5538 H   0  0  0  0  0  0
   -2.6199   -0.4059   -1.4216 H   0  0  0  0  0  0
   -4.4168    2.2056   -3.1491 H   0  0  0  0  0  0
   -8.1983    1.2932   -1.2704 H   0  0  0  0  0  0
   -7.0380   -0.1162    0.3719 H   0  0  0  0  0  0
   -4.5763   -0.4078    0.2762 H   0  0  0  0  0  0
   -8.5544    3.4332   -4.2729 H   0  0  0  0  0  0
   -8.9095    2.0613   -3.2758 H   0  0  0  0  0  0
   -9.8756    4.1528   -2.3713 H   0  0  0  0  0  0
   -8.7655    3.4890   -1.2223 H   0  0  0  0  0  0
   -8.0378    5.7766   -3.1331 H   0  0  0  0  0  0
   -8.6709    5.9986   -1.5180 H   0  0  0  0  0  0
   -6.7525    4.5766   -0.6325 H   0  0  0  0  0  0
   -6.0500    4.6441   -2.2463 H   0  0  0  0  0  0
   -6.5456    7.2943   -1.2513 H   0  0  0  0  0  0
   -0.5392    0.9797   -2.5752 H   0  0  0  0  0  0
   -0.3766   -0.3645    0.6898 H   0  0  0  0  0  0
   -0.3115   -0.8375   -0.9997 H   0  0  0  0  0  0
    1.8888    0.2679   -1.0287 H   0  0  0  0  0  0
    2.5343   -3.3096   -1.0923 H   0  0  0  0  0  0
    2.2199   -1.9264   -2.1309 H   0  0  0  0  0  0
    0.9036   -2.6980   -1.2583 H   0  0  0  0  0  0
    4.3103   -2.0558    0.1611 H   0  0  0  0  0  0
    3.9895   -0.4540    0.8185 H   0  0  0  0  0  0
    4.0452   -0.6954   -0.9182 H   0  0  0  0  0  0
    3.5829   -1.9331    2.7235 H   0  0  0  0  0  0
    1.3316   -4.2722    4.9183 H   0  0  0  0  0  0
    2.9137   -3.5684    4.9989 H   0  0  0  0  0  0
    1.9483   -0.3805    6.6784 H   0  0  0  0  0  0
    2.2403   -0.5435    4.9544 H   0  0  0  0  0  0
    3.3000   -1.3481    6.1055 H   0  0  0  0  0  0
    2.4175   -3.3328    7.5021 H   0  0  0  0  0  0
    0.7621   -3.8888    7.2884 H   0  0  0  0  0  0
    1.0761   -2.3330    8.0445 H   0  0  0  0  0  0
   -0.4777   -1.2502    6.3879 H   0  0  0  0  0  0
   -0.7617   -2.7503    5.5152 H   0  0  0  0  0  0
   -0.1783   -1.3242    4.6624 H   0  0  0  0  0  0
    1.7945    0.4626    0.5904 H   0  0  0  0  0  0
  1  2  1  0  0  0
  1 46  1  0  0  0
  1 47  1  0  0  0
  1 48  1  0  0  0
  2  3  1  0  0  0
  3  4  1  0  0  0
  3 49  1  0  0  0
  3 50  1  0  0  0
  4  9  1  0  0  0
  4  5  2  0  0  0
  5  6  1  0  0  0
  5 51  1  0  0  0
  6 26  1  0  0  0
  6  7  2  0  0  0
  7  8  1  0  0  0
  7 52  1  0  0  0
  8  9  2  0  0  0
  8 10  1  0  0  0
  9 53  1  0  0  0
 10 11  2  0  0  0
 10 12  1  0  0  0
 12 13  1  0  0  0
 12 54  1  0  0  0
 13 44  1  0  0  0
 13 14  1  0  0  0
 13 27  1  0  0  0
 14 15  1  0  0  0
 14 55  1  0  0  0
 14 56  1  0  0  0
 15 20  1  0  0  0
 15 16  2  0  0  0
 16 17  1  0  0  0
 16 57  1  0  0  0
 17 18  2  0  0  0
 17 21  1  0  0  0
 18 19  1  0  0  0
 18 58  1  0  0  0
 19 20  2  0  0  0
 19 59  1  0  0  0
 20 60  1  0  0  0
 21 22  1  0  0  0
 22 23  1  0  0  0
 22 61  1  0  0  0
 22 62  1  0  0  0
 23 24  1  0  0  0
 23 63  1  0  0  0
 23 64  1  0  0  0
 24 25  1  0  0  0
 24 65  1  0  0  0
 24 66  1  0  0  0
 25 26  1  0  0  0
 25 67  1  0  0  0
 25 68  1  0  0  0
 26 69  1  0  0  0
 27 45  1  0  0  0
 27 28  1  0  0  0
 27 29  1  0  0  0
 28 70  1  0  0  0
 29 30  1  0  0  0
 29 71  1  0  0  0
 29 72  1  0  0  0
 30 31  1  0  0  0
 30 73  1  0  0  0
 30 92  1  0  0  0
 31 32  1  0  0  0
 31 33  1  0  0  0
 31 34  1  0  0  0
 32 74  1  0  0  0
 32 75  1  0  0  0
 32 76  1  0  0  0
 33 77  1  0  0  0
 33 78  1  0  0  0
 33 79  1  0  0  0
 34 43  2  0  0  0
 34 35  1  0  0  0
 35 36  2  0  0  0
 35 80  1  0  0  0
 36 37  1  0  0  0
 36 42  1  0  0  0
 37 38  1  0  0  0
 37 81  1  0  0  0
 37 82  1  0  0  0
 38 39  1  0  0  0
 38 40  1  0  0  0
 38 41  1  0  0  0
 39 83  1  0  0  0
 39 84  1  0  0  0
 39 85  1  0  0  0
 40 86  1  0  0  0
 40 87  1  0  0  0
 40 88  1  0  0  0
 41 89  1  0  0  0
 41 90  1  0  0  0
 41 91  1  0  0  0
 42 43  1  0  0  0
M  CHG  1  30   1
M  END
> <s_m_source_file>
BACE_117.smi

> <i_m_source_file_index>
1

> <i_lp_mmshare_version>
42013

> <i_f3d_flags>
0

> <s_epik_input>
W0NIM11DKFtDSDNdKShbQ0gzXSlbQ0gyXWMob24xKVtjSF1jMUMoW0NIM10pKFtDSDNdKVtOSF1bQ0gyXVtDQEBIXShbT0hdKVtDQEBIXShbTkhdQyg9TyljKFtjSF0yKVtjSF1jKFtjSF1jMjMpW0NIMl1PW0NIM10pW0NIMl1jNFtjSF1jKFtjSF1bY0hdW2NIXTQpT1tDSDJdW0NIMl1bQ0gyXVtDSDJdW05IXTM=

> <s_epik_cmdline>
J2VwaWtfcHl0aG9uJywgJy1waCcsICc3LjAnLCAnLXRuJywgJzgnLCAnLW1hJywgJzIwMCcsICctaW1hZScsICc8aW5maWxlLm1hZT4nLCAnLW9tYWUnLCAnPG91dGZpbGUubWFlPic=

> <r_lp_tautomer_probability>
1

> <r_epik_Ionization_Penalty>
0.23464

> <r_epik_Ionization_Penalty_Charging>
0.234311

> <r_epik_Ionization_Penalty_Neutral>
0.000329055

> <r_epik_State_Penalty>
0.225072

> <r_epik_Charging_Adjusted_Penalty>
0.459382

> <i_epik_Tot_Q>
1

> <i_epik_Tot_abs_Q>
1

> <s_lp_Force_Field>
OPLS_2005

> <r_lp_Energy>
36.2247

> <b_lp_Chiralities_Consistent>
1

> <s_lp_Variant>
BACE_117.smi:1-1

$$$$
BACE_117.smi:1
                    3D
 Structure written by MMmdl.
 91 94  0  0  1  0            999 V2000
   -6.0934   -1.2600   -5.3769 C   0  0  0  0  0  0
   -5.3123   -2.1358   -4.5782 O   0  0  0  0  0  0
   -4.0445   -2.4416   -5.1425 C   0  0  0  0  0  0
   -3.0731   -1.2741   -5.1060 C   0  0  0  0  0  0
   -2.3186   -0.9416   -6.2494 C   0  0  0  0  0  0
   -1.4108    0.1366   -6.2240 C   0  0  0  0  0  0
   -1.2442    0.8668   -5.0226 C   0  0  0  0  0  0
   -1.9973    0.5439   -3.8717 C   0  0  0  0  0  0
   -2.9131   -0.5275   -3.9219 C   0  0  0  0  0  0
   -1.8739    1.3621   -2.6212 C   0  0  0  0  0  0
   -2.8641    1.6164   -1.9357 O   0  0  0  0  0  0
   -0.6228    1.7337   -2.2990 N   0  0  0  0  0  0
   -0.2080    2.5202   -1.1314 C   0  0  1  0  0  0
   -0.6489    3.9981   -1.2574 C   0  0  0  0  0  0
   -0.1010    4.6742   -2.5039 C   0  0  0  0  0  0
   -0.8892    4.7823   -3.6694 C   0  0  0  0  0  0
   -0.3681    5.3623   -4.8449 C   0  0  0  0  0  0
    0.9539    5.8720   -4.8280 C   0  0  0  0  0  0
    1.7377    5.7812   -3.6621 C   0  0  0  0  0  0
    1.2144    5.1788   -2.5039 C   0  0  0  0  0  0
   -1.1930    5.3941   -5.9499 O   0  0  0  0  0  0
   -0.6078    5.4712   -7.2496 C   0  0  0  0  0  0
    0.1713    4.1877   -7.5985 C   0  0  0  0  0  0
   -0.7149    2.9326   -7.5930 C   0  0  0  0  0  0
    0.1095    1.6347   -7.5320 C   0  0  0  0  0  0
   -0.7213    0.4439   -7.4087 N   0  0  0  0  0  0
   -0.6073    1.8749    0.2273 C   0  0  2  0  0  0
    0.1481    2.4398    1.2815 O   0  0  0  0  0  0
   -0.4567    0.3406    0.3146 C   0  0  0  0  0  0
    0.8593   -0.1125   -0.1600 N   0  0  0  0  0  0
    1.1273   -1.5620   -0.1641 C   0  0  0  0  0  0
    0.0238   -2.2993   -0.9597 C   0  0  0  0  0  0
    2.4804   -1.7629   -0.8715 C   0  0  0  0  0  0
    1.2330   -2.1127    1.2494 C   0  0  0  0  0  0
    1.3299   -1.4081    2.4849 C   0  0  0  0  0  0
    1.4242   -2.3938    3.4247 C   0  0  0  0  0  0
    1.5206   -2.3678    4.9177 C   0  0  0  0  0  0
    0.1877   -2.5915    5.6783 C   0  0  0  0  0  0
   -0.8330   -1.4948    5.3115 C   0  0  0  0  0  0
    0.4679   -2.5233    7.1917 C   0  0  0  0  0  0
   -0.4141   -3.9728    5.3492 C   0  0  0  0  0  0
    1.4206   -3.6108    2.8259 O   0  0  0  0  0  0
    1.3169   -3.4221    1.4444 N   0  0  0  0  0  0
    0.8822    2.5078   -1.1758 H   0  0  0  0  0  0
   -1.6509    2.1122    0.4363 H   0  0  0  0  0  0
   -7.0556   -1.0889   -4.8948 H   0  0  0  0  0  0
   -6.2836   -1.6889   -6.3616 H   0  0  0  0  0  0
   -5.6091   -0.2914   -5.5051 H   0  0  0  0  0  0
   -3.6071   -3.2556   -4.5640 H   0  0  0  0  0  0
   -4.1648   -2.8160   -6.1605 H   0  0  0  0  0  0
   -2.4472   -1.5114   -7.1584 H   0  0  0  0  0  0
   -0.5565    1.6980   -4.9780 H   0  0  0  0  0  0
   -3.4983   -0.7819   -3.0495 H   0  0  0  0  0  0
    0.1166    1.4464   -2.9237 H   0  0  0  0  0  0
   -1.7370    4.0735   -1.2531 H   0  0  0  0  0  0
   -0.3088    4.5641   -0.3898 H   0  0  0  0  0  0
   -1.8958    4.3901   -3.6744 H   0  0  0  0  0  0
    1.3907    6.3364   -5.6981 H   0  0  0  0  0  0
    2.7457    6.1688   -3.6591 H   0  0  0  0  0  0
    1.8266    5.1004   -1.6172 H   0  0  0  0  0  0
   -1.4193    5.6005   -7.9661 H   0  0  0  0  0  0
    0.0148    6.3592   -7.3550 H   0  0  0  0  0  0
    0.6342    4.2964   -8.5798 H   0  0  0  0  0  0
    0.9946    4.0565   -6.8968 H   0  0  0  0  0  0
   -1.3882    2.9772   -6.7381 H   0  0  0  0  0  0
   -1.3555    2.9302   -8.4756 H   0  0  0  0  0  0
    0.7043    1.5393   -8.4406 H   0  0  0  0  0  0
    0.8215    1.6650   -6.7067 H   0  0  0  0  0  0
   -0.9181   -0.0890   -8.2439 H   0  0  0  0  0  0
   -0.0178    3.3698    1.3045 H   0  0  0  0  0  0
   -0.6401    0.0132    1.3375 H   0  0  0  0  0  0
   -1.2459   -0.1105   -0.2842 H   0  0  0  0  0  0
    1.5894    0.3670    0.3572 H   0  0  0  0  0  0
    0.2803   -3.3474   -1.1180 H   0  0  0  0  0  0
   -0.1236   -1.8527   -1.9441 H   0  0  0  0  0  0
   -0.9346   -2.2869   -0.4405 H   0  0  0  0  0  0
    2.7484   -2.8183   -0.9340 H   0  0  0  0  0  0
    3.2860   -1.2523   -0.3416 H   0  0  0  0  0  0
    2.4582   -1.3728   -1.8900 H   0  0  0  0  0  0
    1.3190   -0.3426    2.6599 H   0  0  0  0  0  0
    2.2447   -3.1212    5.2309 H   0  0  0  0  0  0
    1.9510   -1.4117    5.2189 H   0  0  0  0  0  0
   -1.7545   -1.6044    5.8844 H   0  0  0  0  0  0
   -1.1043   -1.5308    4.2559 H   0  0  0  0  0  0
   -0.4363   -0.4996    5.5152 H   0  0  0  0  0  0
    0.8807   -1.5550    7.4771 H   0  0  0  0  0  0
    1.1826   -3.2881    7.4977 H   0  0  0  0  0  0
   -0.4421   -2.6752    7.7733 H   0  0  0  0  0  0
   -1.3049   -4.1688    5.9470 H   0  0  0  0  0  0
    0.2979   -4.7744    5.5491 H   0  0  0  0  0  0
   -0.7105   -4.0470    4.3027 H   0  0  0  0  0  0
  1  2  1  0  0  0
  1 46  1  0  0  0
  1 47  1  0  0  0
  1 48  1  0  0  0
  2  3  1  0  0  0
  3  4  1  0  0  0
  3 49  1  0  0  0
  3 50  1  0  0  0
  4  9  1  0  0  0
  4  5  2  0  0  0
  5  6  1  0  0  0
  5 51  1  0  0  0
  6 26  1  0  0  0
  6  7  2  0  0  0
  7  8  1  0  0  0
  7 52  1  0  0  0
  8  9  2  0  0  0
  8 10  1  0  0  0
  9 53  1  0  0  0
 10 11  2  0  0  0
 10 12  1  0  0  0
 12 13  1  0  0  0
 12 54  1  0  0  0
 13 44  1  0  0  0
 13 14  1  0  0  0
 13 27  1  0  0  0
 14 15  1  0  0  0
 14 55  1  0  0  0
 14 56  1  0  0  0
 15 20  1  0  0  0
 15 16  2  0  0  0
 16 17  1  0  0  0
 16 57  1  0  0  0
 17 18  2  0  0  0
 17 21  1  0  0  0
 18 19  1  0  0  0
 18 58  1  0  0  0
 19 20  2  0  0  0
 19 59  1  0  0  0
 20 60  1  0  0  0
 21 22  1  0  0  0
 22 23  1  0  0  0
 22 61  1  0  0  0
 22 62  1  0  0  0
 23 24  1  0  0  0
 23 63  1  0  0  0
 23 64  1  0  0  0
 24 25  1  0  0  0
 24 65  1  0  0  0
 24 66  1  0  0  0
 25 26  1  0  0  0
 25 67  1  0  0  0
 25 68  1  0  0  0
 26 69  1  0  0  0
 27 45  1  0  0  0
 27 28  1  0  0  0
 27 29  1  0  0  0
 28 70  1  0  0  0
 29 30  1  0  0  0
 29 71  1  0  0  0
 29 72  1  0  0  0
 30 31  1  0  0  0
 30 73  1  0  0  0
 31 32  1  0  0  0
 31 33  1  0  0  0
 31 34  1  0  0  0
 32 74  1  0  0  0
 32 75  1  0  0  0
 32 76  1  0  0  0
 33 77  1  0  0  0
 33 78  1  0  0  0
 33 79  1  0  0  0
 34 43  2  0  0  0
 34 35  1  0  0  0
 35 36  2  0  0  0
 35 80  1  0  0  0
 36 37  1  0  0  0
 36 42  1  0  0  0
 37 38  1  0  0  0
 37 81  1  0  0  0
 37 82  1  0  0  0
 38 39  1  0  0  0
 38 40  1  0  0  0
 38 41  1  0  0  0
 39 83  1  0  0  0
 39 84  1  0  0  0
 39 85  1  0  0  0
 40 86  1  0  0  0
 40 87  1  0  0  0
 40 88  1  0  0  0
 41 89  1  0  0  0
 41 90  1  0  0  0
 41 91  1  0  0  0
 42 43  1  0  0  0
M  END
> <s_m_source_file>
BACE_117.smi

> <i_m_source_file_index>
1

> <i_lp_mmshare_version>
42013

> <i_f3d_flags>
0

> <s_epik_input>
W0NIM11DKFtDSDNdKShbQ0gzXSlbQ0gyXWMob24xKVtjSF1jMUMoW0NIM10pKFtDSDNdKVtOSF1bQ0gyXVtDQEBIXShbT0hdKVtDQEBIXShbTkhdQyg9TyljKFtjSF0yKVtjSF1jKFtjSF1jMjMpW0NIMl1PW0NIM10pW0NIMl1jNFtjSF1jKFtjSF1bY0hdW2NIXTQpT1tDSDJdW0NIMl1bQ0gyXVtDSDJdW05IXTM=

> <s_epik_cmdline>
J2VwaWtfcHl0aG9uJywgJy1waCcsICc3LjAnLCAnLXRuJywgJzgnLCAnLW1hJywgJzIwMCcsICctaW1hZScsICc8aW5maWxlLm1hZT4nLCAnLW9tYWUnLCAnPG91dGZpbGUubWFlPic=

> <r_lp_tautomer_probability>
1

> <r_epik_Ionization_Penalty>
0.66331

> <r_epik_Ionization_Penalty_Charging>
0

> <r_epik_Ionization_Penalty_Neutral>
0.66331

> <r_epik_State_Penalty>
0.682449

> <r_epik_Charging_Adjusted_Penalty>
0.682449

> <i_epik_Tot_Q>
0

> <i_epik_Tot_abs_Q>
0

> <s_lp_Force_Field>
OPLS_2005

> <r_lp_Energy>
38.8696

> <b_lp_Chiralities_Consistent>
1

> <s_lp_Variant>
BACE_117.smi:1-2

$$$$
