BACE_63.smi:1
                    3D
 Structure written by MMmdl.
 99102  0  0  1  0            999 V2000
   -1.7966   -4.7089   -3.8691 C   0  0  0  0  0  0
   -1.9695   -3.3110   -4.0212 O   0  0  0  0  0  0
   -1.9655   -2.6241   -2.7815 C   0  0  0  0  0  0
   -2.1517   -1.1329   -2.9747 C   0  0  0  0  0  0
   -3.3626   -0.6403   -3.5027 C   0  0  0  0  0  0
   -3.5529    0.7429   -3.6989 C   0  0  0  0  0  0
   -2.5166    1.6339   -3.3372 C   0  0  0  0  0  0
   -1.3248    1.1543   -2.7568 C   0  0  0  0  0  0
   -1.1288   -0.2336   -2.6128 C   0  0  0  0  0  0
   -0.2801    2.1338   -2.3201 C   0  0  0  0  0  0
    0.3046    2.8064   -3.1656 O   0  0  0  0  0  0
   -0.0326    2.2985   -1.0037 N   0  0  0  0  0  0
   -0.5703    1.6484    0.2045 C   0  0  1  0  0  0
   -2.1204    1.6001    0.2943 C   0  0  0  0  0  0
   -2.8798    2.9324    0.0857 C   0  0  2  0  0  0
   -2.6261    3.9116    1.2472 C   0  0  0  0  0  0
   -4.3832    2.6324   -0.1096 C   0  0  0  0  0  0
   -5.2709    3.8601   -0.3908 C   0  0  0  0  0  0
   -6.7207    3.5008   -0.7712 C   0  0  0  0  0  0
   -6.9254    2.7581   -2.1115 C   0  0  0  0  0  0
   -6.6959    3.6071   -3.3793 C   0  0  0  0  0  0
   -5.2537    3.6273   -3.9242 C   0  0  0  0  0  0
   -4.8966    2.4737   -4.8829 C   0  0  0  0  0  0
   -4.7772    1.1748   -4.2325 N   0  0  0  0  0  0
    0.0813    0.2690    0.5056 C   0  0  2  0  0  0
   -0.0643    0.0079    1.8885 O   0  0  0  0  0  0
    1.5906    0.1819    0.1938 C   0  0  0  0  0  0
    2.0932   -1.1995    0.3514 N   0  3  0  0  0  0
    3.5404   -1.3692    0.0905 C   0  0  1  0  0  0
    4.1939   -2.0514    1.3024 C   0  0  0  0  0  0
    5.5834   -2.6307    0.9747 C   0  0  0  0  0  0
    6.6064   -1.5442    0.5801 C   0  0  0  0  0  0
    6.1181   -3.4207    2.1805 C   0  0  0  0  0  0
    5.4628   -3.5791   -0.0857 O   0  0  0  0  0  0
    4.7378   -3.2148   -1.1998 C   0  0  0  0  0  0
    4.9514   -3.9446   -2.3851 C   0  0  0  0  0  0
    4.2734   -3.6026   -3.5690 C   0  0  0  0  0  0
    3.3647   -2.5252   -3.5815 C   0  0  0  0  0  0
    3.1267   -1.8101   -2.3880 C   0  0  0  0  0  0
    3.7979   -2.1523   -1.1922 C   0  0  0  0  0  0
    2.6452   -2.1558   -4.8735 C   0  0  0  0  0  0
    2.7928   -0.6646   -5.2208 C   0  0  0  0  0  0
    1.1723   -2.5821   -4.8296 C   0  0  0  0  0  0
   -0.2306    2.3163    0.9963 H   0  0  0  0  0  0
   -2.5247    3.4013   -0.8318 H   0  0  0  0  0  0
   -0.4491   -0.5169   -0.0288 H   0  0  0  0  0  0
    4.0055   -0.3908   -0.0409 H   0  0  0  0  0  0
   -1.8002   -5.1875   -4.8483 H   0  0  0  0  0  0
   -2.6032   -5.1442   -3.2779 H   0  0  0  0  0  0
   -0.8456   -4.9380   -3.3870 H   0  0  0  0  0  0
   -2.7724   -2.9948   -2.1475 H   0  0  0  0  0  0
   -1.0295   -2.8142   -2.2534 H   0  0  0  0  0  0
   -4.1463   -1.3344   -3.7704 H   0  0  0  0  0  0
   -2.6302    2.6986   -3.4686 H   0  0  0  0  0  0
   -0.1958   -0.6090   -2.2199 H   0  0  0  0  0  0
    0.6597    3.0062   -0.8034 H   0  0  0  0  0  0
   -2.4941    0.8584   -0.4094 H   0  0  0  0  0  0
   -2.4025    1.2047    1.2708 H   0  0  0  0  0  0
   -3.0000    3.5133    2.1908 H   0  0  0  0  0  0
   -3.1107    4.8720    1.0751 H   0  0  0  0  0  0
   -1.5640    4.1201    1.3713 H   0  0  0  0  0  0
   -4.4758    1.9362   -0.9423 H   0  0  0  0  0  0
   -4.7702    2.1058    0.7638 H   0  0  0  0  0  0
   -5.3110    4.4733    0.5093 H   0  0  0  0  0  0
   -4.8248    4.4996   -1.1495 H   0  0  0  0  0  0
   -7.1410    2.8901    0.0287 H   0  0  0  0  0  0
   -7.3181    4.4133   -0.7809 H   0  0  0  0  0  0
   -6.3520    1.8339   -2.1450 H   0  0  0  0  0  0
   -7.9672    2.4363   -2.1302 H   0  0  0  0  0  0
   -7.3584    3.2543   -4.1706 H   0  0  0  0  0  0
   -7.0159    4.6297   -3.1761 H   0  0  0  0  0  0
   -5.1351    4.5528   -4.4885 H   0  0  0  0  0  0
   -4.5321    3.6924   -3.1161 H   0  0  0  0  0  0
   -5.6556    2.3960   -5.6614 H   0  0  0  0  0  0
   -3.9642    2.7003   -5.4015 H   0  0  0  0  0  0
   -5.4493    0.4684   -4.4959 H   0  0  0  0  0  0
   -0.9840    0.0410    2.1060 H   0  0  0  0  0  0
    1.7930    0.4886   -0.8312 H   0  0  0  0  0  0
    2.1509    0.8571    0.8424 H   0  0  0  0  0  0
    1.9119   -1.4808    1.3046 H   0  0  0  0  0  0
    4.2456   -1.3578    2.1428 H   0  0  0  0  0  0
    3.5576   -2.8764    1.6283 H   0  0  0  0  0  0
    6.7303   -0.8129    1.3792 H   0  0  0  0  0  0
    6.3121   -1.0015   -0.3179 H   0  0  0  0  0  0
    7.5846   -1.9831    0.3812 H   0  0  0  0  0  0
    6.2470   -2.7764    3.0509 H   0  0  0  0  0  0
    7.0851   -3.8739    1.9590 H   0  0  0  0  0  0
    5.4378   -4.2251    2.4622 H   0  0  0  0  0  0
    5.6559   -4.7634   -2.3912 H   0  0  0  0  0  0
    4.4618   -4.1690   -4.4695 H   0  0  0  0  0  0
    2.4208   -0.9945   -2.3960 H   0  0  0  0  0  0
    3.1176   -2.7145   -5.6827 H   0  0  0  0  0  0
    3.8435   -0.3785   -5.2803 H   0  0  0  0  0  0
    2.3110   -0.0224   -4.4830 H   0  0  0  0  0  0
    2.3386   -0.4448   -6.1874 H   0  0  0  0  0  0
    1.0795   -3.6547   -4.6570 H   0  0  0  0  0  0
    0.6665   -2.3548   -5.7683 H   0  0  0  0  0  0
    0.6375   -2.0683   -4.0327 H   0  0  0  0  0  0
    1.5801   -1.8134   -0.2652 H   0  0  0  0  0  0
  1  2  1  0  0  0
  1 48  1  0  0  0
  1 49  1  0  0  0
  1 50  1  0  0  0
  2  3  1  0  0  0
  3  4  1  0  0  0
  3 51  1  0  0  0
  3 52  1  0  0  0
  4  9  1  0  0  0
  4  5  2  0  0  0
  5  6  1  0  0  0
  5 53  1  0  0  0
  6 24  1  0  0  0
  6  7  2  0  0  0
  7  8  1  0  0  0
  7 54  1  0  0  0
  8  9  2  0  0  0
  8 10  1  0  0  0
  9 55  1  0  0  0
 10 11  2  0  0  0
 10 12  1  0  0  0
 12 13  1  0  0  0
 12 56  1  0  0  0
 13 44  1  0  0  0
 13 14  1  0  0  0
 13 25  1  0  0  0
 14 15  1  0  0  0
 14 57  1  0  0  0
 14 58  1  0  0  0
 15 45  1  0  0  0
 15 16  1  0  0  0
 15 17  1  0  0  0
 16 59  1  0  0  0
 16 60  1  0  0  0
 16 61  1  0  0  0
 17 18  1  0  0  0
 17 62  1  0  0  0
 17 63  1  0  0  0
 18 19  1  0  0  0
 18 64  1  0  0  0
 18 65  1  0  0  0
 19 20  1  0  0  0
 19 66  1  0  0  0
 19 67  1  0  0  0
 20 21  1  0  0  0
 20 68  1  0  0  0
 20 69  1  0  0  0
 21 22  1  0  0  0
 21 70  1  0  0  0
 21 71  1  0  0  0
 22 23  1  0  0  0
 22 72  1  0  0  0
 22 73  1  0  0  0
 23 24  1  0  0  0
 23 74  1  0  0  0
 23 75  1  0  0  0
 24 76  1  0  0  0
 25 46  1  0  0  0
 25 26  1  0  0  0
 25 27  1  0  0  0
 26 77  1  0  0  0
 27 28  1  0  0  0
 27 78  1  0  0  0
 27 79  1  0  0  0
 28 29  1  0  0  0
 28 80  1  0  0  0
 28 99  1  0  0  0
 29 47  1  0  0  0
 29 40  1  0  0  0
 29 30  1  0  0  0
 30 31  1  0  0  0
 30 81  1  0  0  0
 30 82  1  0  0  0
 31 32  1  0  0  0
 31 33  1  0  0  0
 31 34  1  0  0  0
 32 83  1  0  0  0
 32 84  1  0  0  0
 32 85  1  0  0  0
 33 86  1  0  0  0
 33 87  1  0  0  0
 33 88  1  0  0  0
 34 35  1  0  0  0
 35 40  2  0  0  0
 35 36  1  0  0  0
 36 37  2  0  0  0
 36 89  1  0  0  0
 37 38  1  0  0  0
 37 90  1  0  0  0
 38 39  2  0  0  0
 38 41  1  0  0  0
 39 40  1  0  0  0
 39 91  1  0  0  0
 41 42  1  0  0  0
 41 43  1  0  0  0
 41 92  1  0  0  0
 42 93  1  0  0  0
 42 94  1  0  0  0
 42 95  1  0  0  0
 43 96  1  0  0  0
 43 97  1  0  0  0
 43 98  1  0  0  0
M  CHG  1  28   1
M  END
> <s_m_source_file>
BACE_63.smi

> <i_m_source_file_index>
1

> <i_lp_mmshare_version>
42013

> <i_f3d_flags>
0

> <s_epik_input>
W2NIXTFbY0hdYyhbQ0hdKFtDSDNdKVtDSDNdKVtjSF1jKGMxMilbQ0BIXShbQ0gyXUMoTzIpKFtDSDNdKVtDSDNdKVtOSF1bQ0gyXVtDQEBIXShbT0hdKVtDQEBIXShbTkhdQyg9TyljKFtjSF0zKVtjSF1jKFtjSF1jMzQpW0NIMl1PW0NIM10pW0NIMl1bQ0BIXShbQ0gzXSlbQ0gyXVtDSDJdW0NIMl1bQ0gyXVtDSDJdW0NIMl1bQ0gyXVtOSF00

> <s_epik_cmdline>
J2VwaWtfcHl0aG9uJywgJy1waCcsICc3LjAnLCAnLXRuJywgJzgnLCAnLW1hJywgJzIwMCcsICctaW1hZScsICc8aW5maWxlLm1hZT4nLCAnLW9tYWUnLCAnPG91dGZpbGUubWFlPic=

> <r_lp_tautomer_probability>
1

> <r_epik_Ionization_Penalty>
0.0175912

> <r_epik_Ionization_Penalty_Charging>
0.017037

> <r_epik_Ionization_Penalty_Neutral>
0.000554191

> <r_epik_State_Penalty>
0.0134813

> <r_epik_Charging_Adjusted_Penalty>
0.0305184

> <i_epik_Tot_Q>
1

> <i_epik_Tot_abs_Q>
1

> <s_lp_Force_Field>
OPLS_2005

> <r_lp_Energy>
47.065

> <b_lp_Chiralities_Consistent>
1

> <s_lp_Variant>
BACE_63.smi:1-1

$$$$
BACE_63.smi:1
                    3D
 Structure written by MMmdl.
 98101  0  0  1  0            999 V2000
    0.0761   -4.2959   -1.6996 C   0  0  0  0  0  0
   -0.2367   -2.9264   -1.8721 O   0  0  0  0  0  0
   -1.4954   -2.7147   -2.4952 C   0  0  0  0  0  0
   -1.7812   -1.2448   -2.7529 C   0  0  0  0  0  0
   -3.0063   -0.8590   -3.3360 C   0  0  0  0  0  0
   -3.2791    0.4979   -3.6119 C   0  0  0  0  0  0
   -2.3111    1.4734   -3.2802 C   0  0  0  0  0  0
   -1.1101    1.1036   -2.6439 C   0  0  0  0  0  0
   -0.8329   -0.2571   -2.4186 C   0  0  0  0  0  0
   -0.1378    2.1623   -2.2271 C   0  0  0  0  0  0
    0.4194    2.8425   -3.0855 O   0  0  0  0  0  0
    0.0803    2.3743   -0.9125 N   0  0  0  0  0  0
   -0.4966    1.7700    0.3018 C   0  0  1  0  0  0
   -2.0488    1.7162    0.3357 C   0  0  0  0  0  0
   -2.8175    3.0174    0.0043 C   0  0  2  0  0  0
   -2.6220    4.0798    1.1012 C   0  0  0  0  0  0
   -4.3065    2.6734   -0.2230 C   0  0  0  0  0  0
   -5.2019    3.8503   -0.6538 C   0  0  0  0  0  0
   -6.6330    3.4249   -1.0396 C   0  0  0  0  0  0
   -6.7865    2.5348   -2.2952 C   0  0  0  0  0  0
   -6.5590    3.2460   -3.6454 C   0  0  0  0  0  0
   -5.1045    3.2739   -4.1555 C   0  0  0  0  0  0
   -4.6674    2.0434   -4.9766 C   0  0  0  0  0  0
   -4.5146    0.8236   -4.1928 N   0  0  0  0  0  0
    0.1269    0.3974    0.6873 C   0  0  2  0  0  0
   -0.0137    0.2448    2.0871 O   0  0  0  0  0  0
    1.6291    0.2255    0.3748 C   0  0  0  0  0  0
    1.9898   -1.1917    0.3639 N   0  0  0  0  0  0
    3.4018   -1.4643    0.0874 C   0  0  1  0  0  0
    3.9596   -2.3971    1.1725 C   0  0  0  0  0  0
    5.3295   -2.9894    0.7882 C   0  0  0  0  0  0
    6.4226   -1.9108    0.6340 C   0  0  0  0  0  0
    5.7692   -4.0170    1.8438 C   0  0  0  0  0  0
    5.2144   -3.7188   -0.4325 O   0  0  0  0  0  0
    4.5342   -3.1325   -1.4779 C   0  0  0  0  0  0
    4.7338   -3.6706   -2.7635 C   0  0  0  0  0  0
    4.0864   -3.1151   -3.8812 C   0  0  0  0  0  0
    3.2232   -2.0117   -3.7293 C   0  0  0  0  0  0
    3.0007   -1.4875   -2.4363 C   0  0  0  0  0  0
    3.6418   -2.0428   -1.3052 C   0  0  0  0  0  0
    2.5413   -1.4259   -4.9624 C   0  0  0  0  0  0
    2.4248    0.1084   -4.9295 C   0  0  0  0  0  0
    1.1786   -2.0876   -5.2042 C   0  0  0  0  0  0
   -0.1873    2.4733    1.0757 H   0  0  0  0  0  0
   -2.4360    3.4266   -0.9308 H   0  0  0  0  0  0
   -0.4387   -0.4043    0.2140 H   0  0  0  0  0  0
    3.9682   -0.5330    0.1312 H   0  0  0  0  0  0
    1.0442   -4.3876   -1.2067 H   0  0  0  0  0  0
    0.1374   -4.8089   -2.6601 H   0  0  0  0  0  0
   -0.6689   -4.7960   -1.0796 H   0  0  0  0  0  0
   -1.5288   -3.2420   -3.4500 H   0  0  0  0  0  0
   -2.2892   -3.1222   -1.8677 H   0  0  0  0  0  0
   -3.7368   -1.6151   -3.5852 H   0  0  0  0  0  0
   -2.4863    2.5197   -3.4725 H   0  0  0  0  0  0
    0.1105   -0.5367   -1.9780 H   0  0  0  0  0  0
    0.7499    3.1050   -0.7187 H   0  0  0  0  0  0
   -2.3850    0.9235   -0.3309 H   0  0  0  0  0  0
   -2.3644    1.3827    1.3250 H   0  0  0  0  0  0
   -3.0235    3.7421    2.0570 H   0  0  0  0  0  0
   -3.1152    5.0167    0.8440 H   0  0  0  0  0  0
   -1.5677    4.3134    1.2469 H   0  0  0  0  0  0
   -4.3534    1.9027   -0.9912 H   0  0  0  0  0  0
   -4.7209    2.2207    0.6788 H   0  0  0  0  0  0
   -5.2801    4.5496    0.1785 H   0  0  0  0  0  0
   -4.7405    4.4185   -1.4585 H   0  0  0  0  0  0
   -7.0687    2.8967   -0.1905 H   0  0  0  0  0  0
   -7.2440    4.3192   -1.1658 H   0  0  0  0  0  0
   -6.1859    1.6304   -2.2195 H   0  0  0  0  0  0
   -7.8179    2.1801   -2.2967 H   0  0  0  0  0  0
   -7.1825    2.7759   -4.4069 H   0  0  0  0  0  0
   -6.9295    4.2687   -3.5660 H   0  0  0  0  0  0
   -5.0104    4.1387   -4.8130 H   0  0  0  0  0  0
   -4.4117    3.4604   -3.3419 H   0  0  0  0  0  0
   -5.3962    1.8513   -5.7643 H   0  0  0  0  0  0
   -3.7285    2.2578   -5.4885 H   0  0  0  0  0  0
   -5.1315    0.0580   -4.4234 H   0  0  0  0  0  0
   -0.9345    0.2669    2.2986 H   0  0  0  0  0  0
    1.8719    0.6499   -0.5974 H   0  0  0  0  0  0
    2.2305    0.7728    1.1020 H   0  0  0  0  0  0
    1.7232   -1.6168    1.2464 H   0  0  0  0  0  0
    4.0165   -1.8708    2.1263 H   0  0  0  0  0  0
    3.2632   -3.2246    1.3208 H   0  0  0  0  0  0
    6.5527   -1.3481    1.5589 H   0  0  0  0  0  0
    6.1916   -1.1959   -0.1553 H   0  0  0  0  0  0
    7.3834   -2.3616    0.3846 H   0  0  0  0  0  0
    5.8875   -3.5531    2.8235 H   0  0  0  0  0  0
    6.7222   -4.4748    1.5769 H   0  0  0  0  0  0
    5.0382   -4.8200    1.9434 H   0  0  0  0  0  0
    5.3999   -4.5103   -2.8959 H   0  0  0  0  0  0
    4.2593   -3.5392   -4.8593 H   0  0  0  0  0  0
    2.3343   -0.6514   -2.3085 H   0  0  0  0  0  0
    3.1742   -1.6681   -5.8175 H   0  0  0  0  0  0
    3.3971    0.5744   -4.7665 H   0  0  0  0  0  0
    1.7496    0.4518   -4.1460 H   0  0  0  0  0  0
    2.0354    0.4870   -5.8749 H   0  0  0  0  0  0
    1.2779   -3.1681   -5.3118 H   0  0  0  0  0  0
    0.7093   -1.7065   -6.1115 H   0  0  0  0  0  0
    0.5004   -1.8978   -4.3751 H   0  0  0  0  0  0
  1  2  1  0  0  0
  1 48  1  0  0  0
  1 49  1  0  0  0
  1 50  1  0  0  0
  2  3  1  0  0  0
  3  4  1  0  0  0
  3 51  1  0  0  0
  3 52  1  0  0  0
  4  9  1  0  0  0
  4  5  2  0  0  0
  5  6  1  0  0  0
  5 53  1  0  0  0
  6 24  1  0  0  0
  6  7  2  0  0  0
  7  8  1  0  0  0
  7 54  1  0  0  0
  8  9  2  0  0  0
  8 10  1  0  0  0
  9 55  1  0  0  0
 10 11  2  0  0  0
 10 12  1  0  0  0
 12 13  1  0  0  0
 12 56  1  0  0  0
 13 44  1  0  0  0
 13 14  1  0  0  0
 13 25  1  0  0  0
 14 15  1  0  0  0
 14 57  1  0  0  0
 14 58  1  0  0  0
 15 45  1  0  0  0
 15 16  1  0  0  0
 15 17  1  0  0  0
 16 59  1  0  0  0
 16 60  1  0  0  0
 16 61  1  0  0  0
 17 18  1  0  0  0
 17 62  1  0  0  0
 17 63  1  0  0  0
 18 19  1  0  0  0
 18 64  1  0  0  0
 18 65  1  0  0  0
 19 20  1  0  0  0
 19 66  1  0  0  0
 19 67  1  0  0  0
 20 21  1  0  0  0
 20 68  1  0  0  0
 20 69  1  0  0  0
 21 22  1  0  0  0
 21 70  1  0  0  0
 21 71  1  0  0  0
 22 23  1  0  0  0
 22 72  1  0  0  0
 22 73  1  0  0  0
 23 24  1  0  0  0
 23 74  1  0  0  0
 23 75  1  0  0  0
 24 76  1  0  0  0
 25 46  1  0  0  0
 25 26  1  0  0  0
 25 27  1  0  0  0
 26 77  1  0  0  0
 27 28  1  0  0  0
 27 78  1  0  0  0
 27 79  1  0  0  0
 28 29  1  0  0  0
 28 80  1  0  0  0
 29 47  1  0  0  0
 29 40  1  0  0  0
 29 30  1  0  0  0
 30 31  1  0  0  0
 30 81  1  0  0  0
 30 82  1  0  0  0
 31 32  1  0  0  0
 31 33  1  0  0  0
 31 34  1  0  0  0
 32 83  1  0  0  0
 32 84  1  0  0  0
 32 85  1  0  0  0
 33 86  1  0  0  0
 33 87  1  0  0  0
 33 88  1  0  0  0
 34 35  1  0  0  0
 35 40  2  0  0  0
 35 36  1  0  0  0
 36 37  2  0  0  0
 36 89  1  0  0  0
 37 38  1  0  0  0
 37 90  1  0  0  0
 38 39  2  0  0  0
 38 41  1  0  0  0
 39 40  1  0  0  0
 39 91  1  0  0  0
 41 42  1  0  0  0
 41 43  1  0  0  0
 41 92  1  0  0  0
 42 93  1  0  0  0
 42 94  1  0  0  0
 42 95  1  0  0  0
 43 96  1  0  0  0
 43 97  1  0  0  0
 43 98  1  0  0  0
M  END
> <s_m_source_file>
BACE_63.smi

> <i_m_source_file_index>
1

> <i_lp_mmshare_version>
42013

> <i_f3d_flags>
0

> <s_epik_input>
W2NIXTFbY0hdYyhbQ0hdKFtDSDNdKVtDSDNdKVtjSF1jKGMxMilbQ0BIXShbQ0gyXUMoTzIpKFtDSDNdKVtDSDNdKVtOSF1bQ0gyXVtDQEBIXShbT0hdKVtDQEBIXShbTkhdQyg9TyljKFtjSF0zKVtjSF1jKFtjSF1jMzQpW0NIMl1PW0NIM10pW0NIMl1bQ0BIXShbQ0gzXSlbQ0gyXVtDSDJdW0NIMl1bQ0gyXVtDSDJdW0NIMl1bQ0gyXVtOSF00

> <s_epik_cmdline>
J2VwaWtfcHl0aG9uJywgJy1waCcsICc3LjAnLCAnLXRuJywgJzgnLCAnLW1hJywgJzIwMCcsICctaW1hZScsICc8aW5maWxlLm1hZT4nLCAnLW9tYWUnLCAnPG91dGZpbGUubWFlPic=

> <r_lp_tautomer_probability>
1

> <r_epik_Ionization_Penalty>
2.11182

> <r_epik_Ionization_Penalty_Charging>
0

> <r_epik_Ionization_Penalty_Neutral>
2.11182

> <r_epik_State_Penalty>
2.24811

> <r_epik_Charging_Adjusted_Penalty>
2.24811

> <i_epik_Tot_Q>
0

> <i_epik_Tot_abs_Q>
0

> <s_lp_Force_Field>
OPLS_2005

> <r_lp_Energy>
51.1507

> <b_lp_Chiralities_Consistent>
1

> <s_lp_Variant>
BACE_63.smi:1-2

$$$$
