BACE_131.smi:1
                    3D
 Structure written by MMmdl.
 91 95  0  0  1  0            999 V2000
    4.3208    6.5671   -4.6201 C   0  0  0  0  0  0
    3.1846    7.4729   -4.4235 N   0  0  0  0  0  0
    3.4744    8.8870   -4.6686 C   0  0  0  0  0  0
    1.9725    7.0915   -3.9515 C   0  0  0  0  0  0
    1.1079    7.8966   -3.6029 O   0  0  0  0  0  0
    1.6734    5.6222   -3.8481 C   0  0  0  0  0  0
    1.7738    4.7805   -4.9760 C   0  0  0  0  0  0
    1.4733    3.4072   -4.8829 C   0  0  0  0  0  0
    1.0504    2.8750   -3.6412 C   0  0  0  0  0  0
    0.9214    3.7118   -2.5073 C   0  0  0  0  0  0
    1.2336    5.0837   -2.6221 C   0  0  0  0  0  0
    0.5197    3.1545   -1.1717 C   0  0  0  0  0  0
    0.9575    3.6467   -0.1312 O   0  0  0  0  0  0
   -0.3541    2.1334   -1.2015 N   0  0  0  0  0  0
   -0.8905    1.4271   -0.0342 C   0  0  1  0  0  0
   -2.4351    1.3631   -0.1203 C   0  0  0  0  0  0
   -2.9701    0.6350   -1.3437 C   0  0  0  0  0  0
   -3.1113    1.3152   -2.5704 C   0  0  0  0  0  0
   -3.5634    0.6400   -3.7212 C   0  0  0  0  0  0
   -3.6290    1.3562   -4.8931 O   0  0  0  0  0  0
   -2.9188    0.8236   -6.0076 C   0  0  0  0  0  0
   -1.4247    0.7473   -5.7470 C   0  0  0  0  0  0
   -0.4953    1.4247   -6.4376 C   0  0  0  0  0  0
    0.9933    1.3294   -6.1785 C   0  0  0  0  0  0
    1.6268    2.6326   -6.0432 N   0  0  0  0  0  0
   -3.9337   -0.7233   -3.6246 C   0  0  0  0  0  0
   -4.4290   -1.3898   -4.6941 F   0  0  0  0  0  0
   -3.8118   -1.4002   -2.3957 C   0  0  0  0  0  0
   -3.3268   -0.7263   -1.2595 C   0  0  0  0  0  0
   -0.2188    0.0365    0.1379 C   0  0  2  0  0  0
   -0.5938   -0.4675    1.4061 O   0  0  0  0  0  0
    1.3215    0.0886    0.1036 C   0  0  0  0  0  0
    1.9154   -1.2477    0.1076 N   0  0  0  0  0  0
    3.3718   -1.2479   -0.0405 C   0  0  0  0  0  0
    3.9416   -1.0767   -1.4311 C   0  0  0  0  0  0
    3.9968   -2.4265   -0.7486 C   0  0  0  0  0  0
    4.0713   -0.6379    1.1407 C   0  0  0  0  0  0
    4.4382    0.7251    1.1211 C   0  0  0  0  0  0
    5.0674    1.3370    2.2328 C   0  0  0  0  0  0
    5.3341    0.5390    3.3703 C   0  0  0  0  0  0
    4.9776   -0.8221    3.3986 C   0  0  0  0  0  0
    4.3441   -1.4079    2.2885 C   0  0  0  0  0  0
    5.4554    2.8280    2.2391 C   0  0  0  0  0  0
    4.7152    3.5495    3.3843 C   0  0  0  0  0  0
    5.0947    3.5523    0.9215 C   0  0  0  0  0  0
    6.9775    2.9657    2.4485 C   0  0  0  0  0  0
   -0.6590    2.0103    0.8592 H   0  0  0  0  0  0
   -0.5675   -0.6461   -0.6374 H   0  0  0  0  0  0
    4.3366    5.7619   -3.8842 H   0  0  0  0  0  0
    5.2712    7.0926   -4.5199 H   0  0  0  0  0  0
    4.2900    6.1263   -5.6166 H   0  0  0  0  0  0
    2.6371    9.3877   -5.1574 H   0  0  0  0  0  0
    4.3416    9.0165   -5.3174 H   0  0  0  0  0  0
    3.6771    9.3997   -3.7277 H   0  0  0  0  0  0
    2.0861    5.1921   -5.9253 H   0  0  0  0  0  0
    0.8342    1.8219   -3.5449 H   0  0  0  0  0  0
    1.1460    5.7300   -1.7597 H   0  0  0  0  0  0
   -0.6692    1.8127   -2.1057 H   0  0  0  0  0  0
   -2.8421    0.8953    0.7770 H   0  0  0  0  0  0
   -2.8376    2.3771   -0.1253 H   0  0  0  0  0  0
   -2.8404    2.3586   -2.6412 H   0  0  0  0  0  0
   -3.2888   -0.1546   -6.3087 H   0  0  0  0  0  0
   -3.0997    1.4840   -6.8563 H   0  0  0  0  0  0
   -1.1120    0.0899   -4.9486 H   0  0  0  0  0  0
   -0.7996    2.0755   -7.2448 H   0  0  0  0  0  0
    1.2018    0.6942   -5.3179 H   0  0  0  0  0  0
    1.4466    0.8326   -7.0363 H   0  0  0  0  0  0
    1.8386    3.1248   -6.8994 H   0  0  0  0  0  0
   -4.0922   -2.4407   -2.3246 H   0  0  0  0  0  0
   -3.2281   -1.2576   -0.3239 H   0  0  0  0  0  0
   -0.2547    0.1129    2.0703 H   0  0  0  0  0  0
    1.6553    0.6024   -0.7970 H   0  0  0  0  0  0
    1.6831    0.6769    0.9474 H   0  0  0  0  0  0
    1.6626   -1.7166    0.9716 H   0  0  0  0  0  0
    3.2479   -0.9776   -2.2639 H   0  0  0  0  0  0
    4.8801   -0.5364   -1.5392 H   0  0  0  0  0  0
    4.9702   -2.7713   -0.4052 H   0  0  0  0  0  0
    3.3406   -3.1998   -1.1433 H   0  0  0  0  0  0
    4.2060    1.2882    0.2308 H   0  0  0  0  0  0
    5.8131    0.9670    4.2382 H   0  0  0  0  0  0
    5.1859   -1.4163    4.2761 H   0  0  0  0  0  0
    4.0646   -2.4509    2.3193 H   0  0  0  0  0  0
    4.9547    4.6133    3.4032 H   0  0  0  0  0  0
    4.9788    3.1462    4.3621 H   0  0  0  0  0  0
    3.6340    3.4597    3.2727 H   0  0  0  0  0  0
    4.0219    3.5236    0.7243 H   0  0  0  0  0  0
    5.6085    3.1130    0.0655 H   0  0  0  0  0  0
    5.3817    4.6041    0.9579 H   0  0  0  0  0  0
    7.2875    4.0111    2.4340 H   0  0  0  0  0  0
    7.5314    2.4492    1.6636 H   0  0  0  0  0  0
    7.2994    2.5515    3.4040 H   0  0  0  0  0  0
  1  2  1  0  0  0
  1 49  1  0  0  0
  1 50  1  0  0  0
  1 51  1  0  0  0
  2  3  1  0  0  0
  2  4  1  0  0  0
  3 52  1  0  0  0
  3 53  1  0  0  0
  3 54  1  0  0  0
  4  5  2  0  0  0
  4  6  1  0  0  0
  6 11  1  0  0  0
  6  7  2  0  0  0
  7  8  1  0  0  0
  7 55  1  0  0  0
  8 25  1  0  0  0
  8  9  2  0  0  0
  9 10  1  0  0  0
  9 56  1  0  0  0
 10 11  2  0  0  0
 10 12  1  0  0  0
 11 57  1  0  0  0
 12 13  2  0  0  0
 12 14  1  0  0  0
 14 15  1  0  0  0
 14 58  1  0  0  0
 15 47  1  0  0  0
 15 16  1  0  0  0
 15 30  1  0  0  0
 16 17  1  0  0  0
 16 59  1  0  0  0
 16 60  1  0  0  0
 17 29  1  0  0  0
 17 18  2  0  0  0
 18 19  1  0  0  0
 18 61  1  0  0  0
 19 20  1  0  0  0
 19 26  2  0  0  0
 20 21  1  0  0  0
 21 22  1  0  0  0
 21 62  1  0  0  0
 21 63  1  0  0  0
 22 23  2  0  0  0
 22 64  1  0  0  0
 23 24  1  0  0  0
 23 65  1  0  0  0
 24 25  1  0  0  0
 24 66  1  0  0  0
 24 67  1  0  0  0
 25 68  1  0  0  0
 26 27  1  0  0  0
 26 28  1  0  0  0
 28 29  2  0  0  0
 28 69  1  0  0  0
 29 70  1  0  0  0
 30 48  1  0  0  0
 30 31  1  0  0  0
 30 32  1  0  0  0
 31 71  1  0  0  0
 32 33  1  0  0  0
 32 72  1  0  0  0
 32 73  1  0  0  0
 33 34  1  0  0  0
 33 74  1  0  0  0
 34 36  1  0  0  0
 34 35  1  0  0  0
 34 37  1  0  0  0
 35 36  1  0  0  0
 35 75  1  0  0  0
 35 76  1  0  0  0
 36 77  1  0  0  0
 36 78  1  0  0  0
 37 42  1  0  0  0
 37 38  2  0  0  0
 38 39  1  0  0  0
 38 79  1  0  0  0
 39 40  2  0  0  0
 39 43  1  0  0  0
 40 41  1  0  0  0
 40 80  1  0  0  0
 41 42  2  0  0  0
 41 81  1  0  0  0
 42 82  1  0  0  0
 43 44  1  0  0  0
 43 45  1  0  0  0
 43 46  1  0  0  0
 44 83  1  0  0  0
 44 84  1  0  0  0
 44 85  1  0  0  0
 45 86  1  0  0  0
 45 87  1  0  0  0
 45 88  1  0  0  0
 46 89  1  0  0  0
 46 90  1  0  0  0
 46 91  1  0  0  0
M  END
> <s_m_source_file>
BACE_131.smi

> <i_m_source_file_index>
1

> <i_lp_mmshare_version>
42013

> <i_f3d_flags>
0

> <s_epik_input>
W2NIXTFbY0hdW2NIXWMoQyhbQ0gzXSkoW0NIM10pW0NIM10pW2NIXWMxQzIoW0NIMl1bQ0gyXTIpW05IXVtDSDJdW0NAQEhdKFtPSF0pW0NAQEhdKFtOSF1DKD1PKWMoW2NIXTMpW2NIXWMoW2NIXWMzNClDKD1PKU4oW0NIM10pW0NIM10pW0NIMl1jNVtjSF1jKGMoRilbY0hdW2NIXTUpT1tDSDJdL1tDSF09W0NIXS9bQ0gyXVtOSF00

> <s_epik_cmdline>
J2VwaWtfcHl0aG9uJywgJy1waCcsICc3LjAnLCAnLXRuJywgJzgnLCAnLW1hJywgJzIwMCcsICctaW1hZScsICc8aW5maWxlLm1hZT4nLCAnLW9tYWUnLCAnPG91dGZpbGUubWFlPic=

> <r_lp_tautomer_probability>
1

> <r_epik_Ionization_Penalty>
0.325253

> <r_epik_Ionization_Penalty_Charging>
0

> <r_epik_Ionization_Penalty_Neutral>
0.325253

> <r_epik_State_Penalty>
0.320028

> <r_epik_Charging_Adjusted_Penalty>
0.320028

> <i_epik_Tot_Q>
0

> <i_epik_Tot_abs_Q>
0

> <s_lp_Force_Field>
OPLS_2005

> <r_lp_Energy>
59.8068

> <b_lp_Chiralities_Consistent>
1

> <s_lp_Variant>
BACE_131.smi:1-1

$$$$
BACE_131.smi:1
                    3D
 Structure written by MMmdl.
 92 96  0  0  1  0            999 V2000
   -8.1882   -1.5035   -1.5660 C   0  0  0  0  0  0
   -8.1965   -0.5164   -2.6502 N   0  0  0  0  0  0
   -9.1570   -0.7884   -3.7212 C   0  0  0  0  0  0
   -7.3299    0.5216   -2.7501 C   0  0  0  0  0  0
   -7.2276    1.2101   -3.7663 O   0  0  0  0  0  0
   -6.4525    0.8403   -1.5719 C   0  0  0  0  0  0
   -7.0117    1.1000   -0.3003 C   0  0  0  0  0  0
   -6.1870    1.4170    0.7969 C   0  0  0  0  0  0
   -4.7910    1.5015    0.6034 C   0  0  0  0  0  0
   -4.2137    1.2614   -0.6640 C   0  0  0  0  0  0
   -5.0561    0.9420   -1.7506 C   0  0  0  0  0  0
   -2.7291    1.3879   -0.8639 C   0  0  0  0  0  0
   -2.2499    1.6144   -1.9749 O   0  0  0  0  0  0
   -1.9915    1.2043    0.2433 N   0  0  0  0  0  0
   -0.5469    1.3740    0.3752 C   0  0  1  0  0  0
   -0.2299    2.3743    1.5141 C   0  0  0  0  0  0
   -0.9401    3.7100    1.3492 C   0  0  0  0  0  0
   -2.0331    4.0552    2.1762 C   0  0  0  0  0  0
   -2.6984    5.2971    2.0093 C   0  0  0  0  0  0
   -3.7651    5.7269    2.7723 O   0  0  0  0  0  0
   -4.2720    4.9066    3.8188 C   0  0  0  0  0  0
   -5.1612    3.7980    3.2917 C   0  0  0  0  0  0
   -5.1636    2.5397    3.7659 C   0  0  0  0  0  0
   -6.0218    1.3862    3.2654 C   0  0  0  0  0  0
   -6.7839    1.6445    2.0468 N   0  0  0  0  0  0
   -2.2535    6.1769    0.9999 C   0  0  0  0  0  0
   -2.8757    7.3668    0.8213 F   0  0  0  0  0  0
   -1.1666    5.8349    0.1745 C   0  0  0  0  0  0
   -0.5087    4.6053    0.3503 C   0  0  0  0  0  0
    0.1321   -0.0098    0.5059 C   0  0  2  0  0  0
   -0.1560   -0.5723    1.7726 O   0  0  0  0  0  0
    1.6612    0.0591    0.3486 C   0  0  0  0  0  0
    2.2463   -1.2941    0.2430 N   0  3  0  0  0  0
    3.7146   -1.3305    0.0718 C   0  0  0  0  0  0
    4.1639   -1.2567   -1.3693 C   0  0  0  0  0  0
    4.1834   -2.5807   -0.6330 C   0  0  0  0  0  0
    4.4906   -0.7376    1.2102 C   0  0  0  0  0  0
    4.6439   -1.4593    2.4120 C   0  0  0  0  0  0
    5.3494   -0.9210    3.5145 C   0  0  0  0  0  0
    5.9118    0.3727    3.3813 C   0  0  0  0  0  0
    5.7675    1.0988    2.1845 C   0  0  0  0  0  0
    5.0578    0.5478    1.1035 C   0  0  0  0  0  0
    5.4723   -1.7451    4.8105 C   0  0  0  0  0  0
    6.2972   -1.0296    5.9041 C   0  0  0  0  0  0
    6.1639   -3.0915    4.5099 C   0  0  0  0  0  0
    4.0656   -2.0127    5.3848 C   0  0  0  0  0  0
   -0.1741    1.8229   -0.5471 H   0  0  0  0  0  0
   -0.2682   -0.6719   -0.2639 H   0  0  0  0  0  0
   -8.8024   -1.1613   -0.7329 H   0  0  0  0  0  0
   -7.1803   -1.6999   -1.1974 H   0  0  0  0  0  0
   -8.5870   -2.4628   -1.8982 H   0  0  0  0  0  0
   -8.6683   -1.3145   -4.5419 H   0  0  0  0  0  0
   -9.5917    0.1315   -4.1160 H   0  0  0  0  0  0
   -9.9867   -1.4043   -3.3719 H   0  0  0  0  0  0
   -8.0827    1.0537   -0.1635 H   0  0  0  0  0  0
   -4.1549    1.7694    1.4322 H   0  0  0  0  0  0
   -4.6313    0.7675   -2.7295 H   0  0  0  0  0  0
   -2.4930    0.9995    1.0953 H   0  0  0  0  0  0
   -0.5034    1.9508    2.4812 H   0  0  0  0  0  0
    0.8427    2.5650    1.5602 H   0  0  0  0  0  0
   -2.3506    3.3516    2.9301 H   0  0  0  0  0  0
   -3.4785    4.5228    4.4615 H   0  0  0  0  0  0
   -4.8893    5.5440    4.4517 H   0  0  0  0  0  0
   -5.8297    4.0773    2.4908 H   0  0  0  0  0  0
   -4.4993    2.2932    4.5812 H   0  0  0  0  0  0
   -5.3844    0.5137    3.1171 H   0  0  0  0  0  0
   -6.7239    1.1190    4.0552 H   0  0  0  0  0  0
   -7.7875    1.5492    2.1078 H   0  0  0  0  0  0
   -0.8376    6.5181   -0.5945 H   0  0  0  0  0  0
    0.3238    4.3481   -0.2881 H   0  0  0  0  0  0
   -1.0944   -0.6464    1.8631 H   0  0  0  0  0  0
    1.9192    0.6137   -0.5544 H   0  0  0  0  0  0
    2.1040    0.5930    1.1899 H   0  0  0  0  0  0
    2.0123   -1.8024    1.0841 H   0  0  0  0  0  0
    3.4089   -1.1364   -2.1442 H   0  0  0  0  0  0
    5.1275   -0.7983   -1.5831 H   0  0  0  0  0  0
    5.1602   -2.9804   -0.3675 H   0  0  0  0  0  0
    3.4429   -3.3204   -0.9327 H   0  0  0  0  0  0
    4.2008   -2.4414    2.4841 H   0  0  0  0  0  0
    6.4607    0.8384    4.1847 H   0  0  0  0  0  0
    6.2008    2.0844    2.0978 H   0  0  0  0  0  0
    4.9471    1.1174    0.1922 H   0  0  0  0  0  0
    6.3722   -1.6402    6.8047 H   0  0  0  0  0  0
    5.8417   -0.0838    6.2001 H   0  0  0  0  0  0
    7.3160   -0.8261    5.5723 H   0  0  0  0  0  0
    7.1559   -2.9389    4.0830 H   0  0  0  0  0  0
    5.5946   -3.7005    3.8076 H   0  0  0  0  0  0
    6.2863   -3.6850    5.4166 H   0  0  0  0  0  0
    4.1182   -2.5801    6.3147 H   0  0  0  0  0  0
    3.4428   -2.5846    4.6969 H   0  0  0  0  0  0
    3.5440   -1.0794    5.6004 H   0  0  0  0  0  0
    1.8223   -1.7640   -0.5438 H   0  0  0  0  0  0
  1  2  1  0  0  0
  1 49  1  0  0  0
  1 50  1  0  0  0
  1 51  1  0  0  0
  2  3  1  0  0  0
  2  4  1  0  0  0
  3 52  1  0  0  0
  3 53  1  0  0  0
  3 54  1  0  0  0
  4  5  2  0  0  0
  4  6  1  0  0  0
  6 11  1  0  0  0
  6  7  2  0  0  0
  7  8  1  0  0  0
  7 55  1  0  0  0
  8 25  1  0  0  0
  8  9  2  0  0  0
  9 10  1  0  0  0
  9 56  1  0  0  0
 10 11  2  0  0  0
 10 12  1  0  0  0
 11 57  1  0  0  0
 12 13  2  0  0  0
 12 14  1  0  0  0
 14 15  1  0  0  0
 14 58  1  0  0  0
 15 47  1  0  0  0
 15 16  1  0  0  0
 15 30  1  0  0  0
 16 17  1  0  0  0
 16 59  1  0  0  0
 16 60  1  0  0  0
 17 29  1  0  0  0
 17 18  2  0  0  0
 18 19  1  0  0  0
 18 61  1  0  0  0
 19 20  1  0  0  0
 19 26  2  0  0  0
 20 21  1  0  0  0
 21 22  1  0  0  0
 21 62  1  0  0  0
 21 63  1  0  0  0
 22 23  2  0  0  0
 22 64  1  0  0  0
 23 24  1  0  0  0
 23 65  1  0  0  0
 24 25  1  0  0  0
 24 66  1  0  0  0
 24 67  1  0  0  0
 25 68  1  0  0  0
 26 27  1  0  0  0
 26 28  1  0  0  0
 28 29  2  0  0  0
 28 69  1  0  0  0
 29 70  1  0  0  0
 30 48  1  0  0  0
 30 31  1  0  0  0
 30 32  1  0  0  0
 31 71  1  0  0  0
 32 33  1  0  0  0
 32 72  1  0  0  0
 32 73  1  0  0  0
 33 34  1  0  0  0
 33 74  1  0  0  0
 33 92  1  0  0  0
 34 36  1  0  0  0
 34 35  1  0  0  0
 34 37  1  0  0  0
 35 36  1  0  0  0
 35 75  1  0  0  0
 35 76  1  0  0  0
 36 77  1  0  0  0
 36 78  1  0  0  0
 37 42  1  0  0  0
 37 38  2  0  0  0
 38 39  1  0  0  0
 38 79  1  0  0  0
 39 40  2  0  0  0
 39 43  1  0  0  0
 40 41  1  0  0  0
 40 80  1  0  0  0
 41 42  2  0  0  0
 41 81  1  0  0  0
 42 82  1  0  0  0
 43 44  1  0  0  0
 43 45  1  0  0  0
 43 46  1  0  0  0
 44 83  1  0  0  0
 44 84  1  0  0  0
 44 85  1  0  0  0
 45 86  1  0  0  0
 45 87  1  0  0  0
 45 88  1  0  0  0
 46 89  1  0  0  0
 46 90  1  0  0  0
 46 91  1  0  0  0
M  CHG  1  33   1
M  END
> <s_m_source_file>
BACE_131.smi

> <i_m_source_file_index>
1

> <i_lp_mmshare_version>
42013

> <i_f3d_flags>
0

> <s_epik_input>
W2NIXTFbY0hdW2NIXWMoQyhbQ0gzXSkoW0NIM10pW0NIM10pW2NIXWMxQzIoW0NIMl1bQ0gyXTIpW05IXVtDSDJdW0NAQEhdKFtPSF0pW0NAQEhdKFtOSF1DKD1PKWMoW2NIXTMpW2NIXWMoW2NIXWMzNClDKD1PKU4oW0NIM10pW0NIM10pW0NIMl1jNVtjSF1jKGMoRilbY0hdW2NIXTUpT1tDSDJdL1tDSF09W0NIXS9bQ0gyXVtOSF00

> <s_epik_cmdline>
J2VwaWtfcHl0aG9uJywgJy1waCcsICc3LjAnLCAnLXRuJywgJzgnLCAnLW1hJywgJzIwMCcsICctaW1hZScsICc8aW5maWxlLm1hZT4nLCAnLW9tYWUnLCAnPG91dGZpbGUubWFlPic=

> <r_lp_tautomer_probability>
1

> <r_epik_Ionization_Penalty>
0.510548

> <r_epik_Ionization_Penalty_Charging>
0.510542

> <r_epik_Ionization_Penalty_Neutral>
6.20268e-06

> <r_epik_State_Penalty>
0.517752

> <r_epik_Charging_Adjusted_Penalty>
1.02829

> <i_epik_Tot_Q>
1

> <i_epik_Tot_abs_Q>
1

> <s_lp_Force_Field>
OPLS_2005

> <r_lp_Energy>
53.0652

> <b_lp_Chiralities_Consistent>
1

> <s_lp_Variant>
BACE_131.smi:1-2

$$$$
