BACE_14.smi:1
                    3D
 Structure written by MMmdl.
 85 89  0  0  1  0            999 V2000
    3.4937    3.9825    3.8057 C   0  0  0  0  0  0
    2.5554    4.5635    2.7390 C   0  0  0  0  0  0
    2.1924    6.0266    3.0360 C   0  0  0  0  0  0
    1.3154    3.6973    2.5623 C   0  0  0  0  0  0
    1.0813    3.0435    1.3337 C   0  0  0  0  0  0
   -0.0576    2.2297    1.1526 C   0  0  0  0  0  0
   -0.9646    2.0707    2.2212 C   0  0  0  0  0  0
   -0.7404    2.7191    3.4500 C   0  0  0  0  0  0
    0.3966    3.5303    3.6210 C   0  0  0  0  0  0
   -0.2927    1.5240   -0.1505 C   0  0  0  0  0  0
   -0.2181    2.2734   -1.4647 C   0  0  0  0  0  0
   -1.5553    1.8170   -0.9286 C   0  0  0  0  0  0
    0.1496    0.1313   -0.1052 N   0  0  0  0  0  0
    1.5788   -0.0410   -0.3639 C   0  0  0  0  0  0
    1.9977   -1.5189   -0.2199 C   0  0  1  0  0  0
    1.5654   -2.1837   -1.3917 O   0  0  0  0  0  0
    3.5299   -1.7127   -0.0795 C   0  0  2  0  0  0
    3.9609   -3.2011    0.0113 C   0  0  0  0  0  0
    3.5668   -3.8873    1.3098 C   0  0  0  0  0  0
    4.4313   -3.8419    2.4222 C   0  0  0  0  0  0
    4.0557   -4.4145    3.6518 C   0  0  0  0  0  0
    2.8126   -5.0850    3.7492 C   0  0  0  0  0  0
    1.9584   -5.1596    2.6321 C   0  0  0  0  0  0
    2.3318   -4.5589    1.4153 C   0  0  0  0  0  0
    4.9350   -4.2796    4.7000 O   0  0  0  0  0  0
    4.3924   -4.3037    6.0123 C   0  0  0  0  0  0
    5.3588   -3.5711    6.9535 C   0  0  0  0  0  0
    5.6866   -2.1307    6.5174 C   0  0  0  0  0  0
    4.4589   -1.2058    6.4356 C   0  0  0  0  0  0
    4.8266    0.1758    6.1574 N   0  0  0  0  0  0
    5.3052    0.5688    4.8976 C   0  0  0  0  0  0
    6.0965    1.7336    4.8384 C   0  0  0  0  0  0
    6.6179    2.1990    3.6096 C   0  0  0  0  0  0
    6.3302    1.4776    2.4305 C   0  0  0  0  0  0
    5.5247    0.3192    2.4651 C   0  0  0  0  0  0
    5.0223   -0.1388    3.7052 C   0  0  0  0  0  0
    5.2519   -0.4280    1.1910 C   0  0  0  0  0  0
    6.1010   -0.4847    0.3013 O   0  0  0  0  0  0
    4.0258   -0.9644    1.0790 N   0  0  0  0  0  0
    7.4505    3.4325    3.5274 C   0  0  0  0  0  0
    7.7331    4.1909    4.8231 C   0  0  0  0  0  0
    7.9128    3.8710    2.4747 O   0  0  0  0  0  0
    1.4963   -1.9588    0.6431 H   0  0  0  0  0  0
    3.9836   -1.2933   -0.9798 H   0  0  0  0  0  0
    3.7695    2.9585    3.5552 H   0  0  0  0  0  0
    3.0282    3.9692    4.7913 H   0  0  0  0  0  0
    4.4125    4.5644    3.8814 H   0  0  0  0  0  0
    3.1017    4.5559    1.7949 H   0  0  0  0  0  0
    1.5638    6.4411    2.2476 H   0  0  0  0  0  0
    3.0876    6.6454    3.1020 H   0  0  0  0  0  0
    1.6540    6.1260    3.9787 H   0  0  0  0  0  0
    1.7827    3.1601    0.5204 H   0  0  0  0  0  0
   -1.8382    1.4470    2.0989 H   0  0  0  0  0  0
   -1.4401    2.5921    4.2628 H   0  0  0  0  0  0
    0.5613    4.0207    4.5690 H   0  0  0  0  0  0
   -0.0064    3.3404   -1.4339 H   0  0  0  0  0  0
    0.1526    1.7505   -2.3441 H   0  0  0  0  0  0
   -2.0380    0.9961   -1.4553 H   0  0  0  0  0  0
   -2.2255    2.5857   -0.5484 H   0  0  0  0  0  0
   -0.0389   -0.2349    0.8225 H   0  0  0  0  0  0
    1.8448    0.3332   -1.3529 H   0  0  0  0  0  0
    2.1335    0.5686    0.3485 H   0  0  0  0  0  0
    1.9741   -1.7721   -2.1377 H   0  0  0  0  0  0
    3.5653   -3.7710   -0.8298 H   0  0  0  0  0  0
    5.0455   -3.2650   -0.0875 H   0  0  0  0  0  0
    5.3791   -3.3290    2.3456 H   0  0  0  0  0  0
    2.5018   -5.5511    4.6723 H   0  0  0  0  0  0
    1.0107   -5.6713    2.7115 H   0  0  0  0  0  0
    1.6644   -4.6059    0.5671 H   0  0  0  0  0  0
    3.4145   -3.8211    6.0514 H   0  0  0  0  0  0
    4.2609   -5.3366    6.3368 H   0  0  0  0  0  0
    4.9409   -3.5614    7.9606 H   0  0  0  0  0  0
    6.2880   -4.1383    7.0179 H   0  0  0  0  0  0
    6.4009   -1.7123    7.2276 H   0  0  0  0  0  0
    6.1996   -2.1494    5.5552 H   0  0  0  0  0  0
    3.7409   -1.5603    5.6971 H   0  0  0  0  0  0
    3.9363   -1.2178    7.3923 H   0  0  0  0  0  0
    5.1004    0.7376    6.9508 H   0  0  0  0  0  0
    6.2964    2.2643    5.7576 H   0  0  0  0  0  0
    6.7213    1.8198    1.4825 H   0  0  0  0  0  0
    4.4197   -1.0342    3.7323 H   0  0  0  0  0  0
    3.3890   -0.8522    1.8547 H   0  0  0  0  0  0
    8.2725    3.5575    5.5272 H   0  0  0  0  0  0
    6.8018    4.5177    5.2855 H   0  0  0  0  0  0
    8.3415    5.0732    4.6231 H   0  0  0  0  0  0
  1  2  1  0  0  0
  1 45  1  0  0  0
  1 46  1  0  0  0
  1 47  1  0  0  0
  2  3  1  0  0  0
  2  4  1  0  0  0
  2 48  1  0  0  0
  3 49  1  0  0  0
  3 50  1  0  0  0
  3 51  1  0  0  0
  4  9  1  0  0  0
  4  5  2  0  0  0
  5  6  1  0  0  0
  5 52  1  0  0  0
  6  7  2  0  0  0
  6 10  1  0  0  0
  7  8  1  0  0  0
  7 53  1  0  0  0
  8  9  2  0  0  0
  8 54  1  0  0  0
  9 55  1  0  0  0
 10 12  1  0  0  0
 10 11  1  0  0  0
 10 13  1  0  0  0
 11 12  1  0  0  0
 11 56  1  0  0  0
 11 57  1  0  0  0
 12 58  1  0  0  0
 12 59  1  0  0  0
 13 14  1  0  0  0
 13 60  1  0  0  0
 14 15  1  0  0  0
 14 61  1  0  0  0
 14 62  1  0  0  0
 15 43  1  0  0  0
 15 16  1  0  0  0
 15 17  1  0  0  0
 16 63  1  0  0  0
 17 44  1  0  0  0
 17 39  1  0  0  0
 17 18  1  0  0  0
 18 19  1  0  0  0
 18 64  1  0  0  0
 18 65  1  0  0  0
 19 24  1  0  0  0
 19 20  2  0  0  0
 20 21  1  0  0  0
 20 66  1  0  0  0
 21 22  2  0  0  0
 21 25  1  0  0  0
 22 23  1  0  0  0
 22 67  1  0  0  0
 23 24  2  0  0  0
 23 68  1  0  0  0
 24 69  1  0  0  0
 25 26  1  0  0  0
 26 27  1  0  0  0
 26 70  1  0  0  0
 26 71  1  0  0  0
 27 28  1  0  0  0
 27 72  1  0  0  0
 27 73  1  0  0  0
 28 29  1  0  0  0
 28 74  1  0  0  0
 28 75  1  0  0  0
 29 30  1  0  0  0
 29 76  1  0  0  0
 29 77  1  0  0  0
 30 31  1  0  0  0
 30 78  1  0  0  0
 31 36  1  0  0  0
 31 32  2  0  0  0
 32 33  1  0  0  0
 32 79  1  0  0  0
 33 34  2  0  0  0
 33 40  1  0  0  0
 34 35  1  0  0  0
 34 80  1  0  0  0
 35 36  2  0  0  0
 35 37  1  0  0  0
 36 81  1  0  0  0
 37 38  2  0  0  0
 37 39  1  0  0  0
 39 82  1  0  0  0
 40 41  1  0  0  0
 40 42  2  0  0  0
 41 83  1  0  0  0
 41 84  1  0  0  0
 41 85  1  0  0  0
M  END
> <s_m_source_file>
BACE_14.smi

> <i_m_source_file_index>
1

> <i_lp_mmshare_version>
42013

> <i_f3d_flags>
0

> <s_epik_input>
W0NIM11bQ0hdKFtDSDNdKWMxW2NIXWMoW2NIXVtjSF1bY0hdMSlDMihbQ0gyXVtDSDJdMilbTkhdW0NIMl1bQ0BASF0oW09IXSlbQ0BIXShbQ0gyXTMpW05IXUMoPU8pYyhbY0hdNClbY0hdYyhDKD1PKVtDSDNdKVtjSF1jNFtOSF1bQ0gyXVtDSDJdW0NIMl1bQ0gyXU9jKFtjSF1jMzUpW2NIXVtjSF1bY0hdNQ==

> <s_epik_cmdline>
J2VwaWtfcHl0aG9uJywgJy1waCcsICc3LjAnLCAnLXRuJywgJzgnLCAnLW1hJywgJzIwMCcsICctaW1hZScsICc8aW5maWxlLm1hZT4nLCAnLW9tYWUnLCAnPG91dGZpbGUubWFlPic=

> <r_lp_tautomer_probability>
0.99995

> <r_epik_Ionization_Penalty>
0.322992

> <r_epik_Ionization_Penalty_Charging>
0

> <r_epik_Ionization_Penalty_Neutral>
0.322992

> <r_epik_State_Penalty>
0.317604

> <r_epik_Charging_Adjusted_Penalty>
0.317604

> <i_epik_Tot_Q>
0

> <i_epik_Tot_abs_Q>
0

> <s_lp_Force_Field>
OPLS_2005

> <r_lp_Energy>
49.9675

> <b_lp_Chiralities_Consistent>
1

> <s_lp_Variant>
BACE_14.smi:1-1

$$$$
BACE_14.smi:1
                    3D
 Structure written by MMmdl.
 86 90  0  0  1  0            999 V2000
   -1.1803    3.8432    5.5849 C   0  0  0  0  0  0
   -0.6029    2.5472    4.9938 C   0  0  0  0  0  0
    0.4377    1.9100    5.9268 C   0  0  0  0  0  0
   -0.0369    2.7644    3.5964 C   0  0  0  0  0  0
   -0.5550    2.0364    2.5037 C   0  0  0  0  0  0
   -0.0353    2.2165    1.2047 C   0  0  0  0  0  0
    1.0058    3.1482    1.0033 C   0  0  0  0  0  0
    1.5315    3.8752    2.0870 C   0  0  0  0  0  0
    1.0139    3.6823    3.3809 C   0  0  0  0  0  0
   -0.5536    1.3939    0.0598 C   0  0  0  0  0  0
   -0.9358    1.9896   -1.2749 C   0  0  0  0  0  0
   -2.0050    1.4349   -0.3554 C   0  0  0  0  0  0
    0.0319    0.0371   -0.0400 N   0  3  0  0  0  0
    1.5050    0.0093   -0.1614 C   0  0  0  0  0  0
    2.0610   -1.4287   -0.1784 C   0  0  1  0  0  0
    1.6443   -2.0294   -1.3896 O   0  0  0  0  0  0
    3.6127   -1.5092   -0.0901 C   0  0  2  0  0  0
    4.1602   -2.9597   -0.0543 C   0  0  0  0  0  0
    3.6814   -3.7971    1.1248 C   0  0  0  0  0  0
    4.3677   -3.7526    2.3572 C   0  0  0  0  0  0
    3.9012   -4.4901    3.4765 C   0  0  0  0  0  0
    2.7652   -5.3099    3.3185 C   0  0  0  0  0  0
    2.0946   -5.3839    2.0833 C   0  0  0  0  0  0
    2.5491   -4.6260    0.9890 C   0  0  0  0  0  0
    4.4746   -4.4605    4.7332 O   0  0  0  0  0  0
    5.5320   -3.5437    5.0050 C   0  0  0  0  0  0
    5.0313   -2.0896    5.0730 C   0  0  0  0  0  0
    4.1297   -1.7776    6.2795 C   0  0  0  0  0  0
    3.2555   -0.5168    6.1065 C   0  0  0  0  0  0
    4.0125    0.7305    6.0328 N   0  0  0  0  0  0
    4.6514    1.1320    4.8481 C   0  0  0  0  0  0
    5.7634    1.9909    4.9551 C   0  0  0  0  0  0
    6.4931    2.3832    3.8083 C   0  0  0  0  0  0
    6.1029    1.8850    2.5445 C   0  0  0  0  0  0
    4.9953    1.0202    2.4194 C   0  0  0  0  0  0
    4.2461    0.6885    3.5689 C   0  0  0  0  0  0
    4.6079    0.4809    1.0727 C   0  0  0  0  0  0
    4.7669    1.1517    0.0529 O   0  0  0  0  0  0
    4.1096   -0.7697    1.0744 N   0  0  0  0  0  0
    7.6737    3.2884    3.9039 C   0  0  0  0  0  0
    8.0558    3.8189    5.2846 C   0  0  0  0  0  0
    8.3497    3.6278    2.9333 O   0  0  0  0  0  0
    1.6189   -1.9784    0.6531 H   0  0  0  0  0  0
    4.0211   -1.0462   -0.9905 H   0  0  0  0  0  0
   -1.9511    4.2600    4.9357 H   0  0  0  0  0  0
   -0.4116    4.6044    5.7206 H   0  0  0  0  0  0
   -1.6356    3.6597    6.5585 H   0  0  0  0  0  0
   -1.4305    1.8413    4.9093 H   0  0  0  0  0  0
    0.7850    0.9583    5.5256 H   0  0  0  0  0  0
    0.0152    1.7159    6.9130 H   0  0  0  0  0  0
    1.3085    2.5529    6.0607 H   0  0  0  0  0  0
   -1.3506    1.3226    2.6615 H   0  0  0  0  0  0
    1.4187    3.2937    0.0157 H   0  0  0  0  0  0
    2.3361    4.5779    1.9267 H   0  0  0  0  0  0
    1.4282    4.2416    4.2066 H   0  0  0  0  0  0
   -0.8909    3.0716   -1.3830 H   0  0  0  0  0  0
   -0.7207    1.4217   -2.1782 H   0  0  0  0  0  0
   -2.4860    0.5090   -0.6659 H   0  0  0  0  0  0
   -2.6563    2.1569    0.1337 H   0  0  0  0  0  0
   -0.2260   -0.4787    0.7890 H   0  0  0  0  0  0
    1.8220    0.5647   -1.0454 H   0  0  0  0  0  0
    1.8999    0.5331    0.7052 H   0  0  0  0  0  0
    2.0894   -1.6037   -2.1071 H   0  0  0  0  0  0
    3.8995   -3.4771   -0.9785 H   0  0  0  0  0  0
    5.2509   -2.9343   -0.0382 H   0  0  0  0  0  0
    5.2416   -3.1233    2.4266 H   0  0  0  0  0  0
    2.4000   -5.8845    4.1573 H   0  0  0  0  0  0
    1.2253   -6.0164    1.9788 H   0  0  0  0  0  0
    2.0219   -4.6778    0.0476 H   0  0  0  0  0  0
    5.9778   -3.8172    5.9616 H   0  0  0  0  0  0
    6.3301   -3.6528    4.2699 H   0  0  0  0  0  0
    5.8917   -1.4202    5.0910 H   0  0  0  0  0  0
    4.4889   -1.8591    4.1617 H   0  0  0  0  0  0
    3.4589   -2.6216    6.4430 H   0  0  0  0  0  0
    4.7357   -1.6970    7.1825 H   0  0  0  0  0  0
    2.5859   -0.6290    5.2556 H   0  0  0  0  0  0
    2.6005   -0.4328    6.9739 H   0  0  0  0  0  0
    4.3950    1.0756    6.9018 H   0  0  0  0  0  0
    6.0548    2.3308    5.9380 H   0  0  0  0  0  0
    6.6636    2.1567    1.6610 H   0  0  0  0  0  0
    3.3768    0.0588    3.4605 H   0  0  0  0  0  0
    4.0490   -1.2436    1.9643 H   0  0  0  0  0  0
    8.3133    2.9961    5.9520 H   0  0  0  0  0  0
    7.2291    4.3805    5.7203 H   0  0  0  0  0  0
    8.9185    4.4818    5.2136 H   0  0  0  0  0  0
   -0.3634   -0.4290   -0.8440 H   0  0  0  0  0  0
  1  2  1  0  0  0
  1 45  1  0  0  0
  1 46  1  0  0  0
  1 47  1  0  0  0
  2  3  1  0  0  0
  2  4  1  0  0  0
  2 48  1  0  0  0
  3 49  1  0  0  0
  3 50  1  0  0  0
  3 51  1  0  0  0
  4  9  1  0  0  0
  4  5  2  0  0  0
  5  6  1  0  0  0
  5 52  1  0  0  0
  6  7  2  0  0  0
  6 10  1  0  0  0
  7  8  1  0  0  0
  7 53  1  0  0  0
  8  9  2  0  0  0
  8 54  1  0  0  0
  9 55  1  0  0  0
 10 12  1  0  0  0
 10 11  1  0  0  0
 10 13  1  0  0  0
 11 12  1  0  0  0
 11 56  1  0  0  0
 11 57  1  0  0  0
 12 58  1  0  0  0
 12 59  1  0  0  0
 13 14  1  0  0  0
 13 60  1  0  0  0
 13 86  1  0  0  0
 14 15  1  0  0  0
 14 61  1  0  0  0
 14 62  1  0  0  0
 15 43  1  0  0  0
 15 16  1  0  0  0
 15 17  1  0  0  0
 16 63  1  0  0  0
 17 44  1  0  0  0
 17 39  1  0  0  0
 17 18  1  0  0  0
 18 19  1  0  0  0
 18 64  1  0  0  0
 18 65  1  0  0  0
 19 24  1  0  0  0
 19 20  2  0  0  0
 20 21  1  0  0  0
 20 66  1  0  0  0
 21 22  2  0  0  0
 21 25  1  0  0  0
 22 23  1  0  0  0
 22 67  1  0  0  0
 23 24  2  0  0  0
 23 68  1  0  0  0
 24 69  1  0  0  0
 25 26  1  0  0  0
 26 27  1  0  0  0
 26 70  1  0  0  0
 26 71  1  0  0  0
 27 28  1  0  0  0
 27 72  1  0  0  0
 27 73  1  0  0  0
 28 29  1  0  0  0
 28 74  1  0  0  0
 28 75  1  0  0  0
 29 30  1  0  0  0
 29 76  1  0  0  0
 29 77  1  0  0  0
 30 31  1  0  0  0
 30 78  1  0  0  0
 31 36  1  0  0  0
 31 32  2  0  0  0
 32 33  1  0  0  0
 32 79  1  0  0  0
 33 34  2  0  0  0
 33 40  1  0  0  0
 34 35  1  0  0  0
 34 80  1  0  0  0
 35 36  2  0  0  0
 35 37  1  0  0  0
 36 81  1  0  0  0
 37 38  2  0  0  0
 37 39  1  0  0  0
 39 82  1  0  0  0
 40 41  1  0  0  0
 40 42  2  0  0  0
 41 83  1  0  0  0
 41 84  1  0  0  0
 41 85  1  0  0  0
M  CHG  1  13   1
M  END
> <s_m_source_file>
BACE_14.smi

> <i_m_source_file_index>
1

> <i_lp_mmshare_version>
42013

> <i_f3d_flags>
0

> <s_epik_input>
W0NIM11bQ0hdKFtDSDNdKWMxW2NIXWMoW2NIXVtjSF1bY0hdMSlDMihbQ0gyXVtDSDJdMilbTkhdW0NIMl1bQ0BASF0oW09IXSlbQ0BIXShbQ0gyXTMpW05IXUMoPU8pYyhbY0hdNClbY0hdYyhDKD1PKVtDSDNdKVtjSF1jNFtOSF1bQ0gyXVtDSDJdW0NIMl1bQ0gyXU9jKFtjSF1jMzUpW2NIXVtjSF1bY0hdNQ==

> <s_epik_cmdline>
J2VwaWtfcHl0aG9uJywgJy1waCcsICc3LjAnLCAnLXRuJywgJzgnLCAnLW1hJywgJzIwMCcsICctaW1hZScsICc8aW5maWxlLm1hZT4nLCAnLW9tYWUnLCAnPG91dGZpbGUubWFlPic=

> <r_lp_tautomer_probability>
0.99995

> <r_epik_Ionization_Penalty>
0.51374

> <r_epik_Ionization_Penalty_Charging>
0.513699

> <r_epik_Ionization_Penalty_Neutral>
4.03684e-05

> <r_epik_State_Penalty>
0.521152

> <r_epik_Charging_Adjusted_Penalty>
1.03485

> <i_epik_Tot_Q>
1

> <i_epik_Tot_abs_Q>
1

> <s_lp_Force_Field>
OPLS_2005

> <r_lp_Energy>
43.6153

> <b_lp_Chiralities_Consistent>
1

> <s_lp_Variant>
BACE_14.smi:1-2

$$$$
