BACE_57.smi:1
                    3D
 Structure written by MMmdl.
 89 91  0  0  1  0            999 V2000
   -4.6772    1.5003   -3.9735 C   0  0  0  0  0  0
   -3.1715    1.1811   -3.8767 C   0  0  2  0  0  0
   -2.8461   -0.3182   -4.0290 C   0  0  0  0  0  0
   -3.4544   -1.0545   -5.2356 C   0  0  0  0  0  0
   -3.2351   -2.5647   -5.0691 C   0  0  0  0  0  0
   -4.1681   -3.4588   -5.8967 C   0  0  0  0  0  0
   -4.1179   -4.9437   -5.4770 C   0  0  0  0  0  0
   -4.5411   -5.2054   -4.0133 C   0  0  0  0  0  0
   -3.3523   -5.3008   -3.0356 C   0  0  0  0  0  0
   -3.7631   -5.2914   -1.6381 N   0  0  0  0  0  0
   -3.4884   -4.1072   -0.9391 C   0  0  0  0  0  0
   -4.1536   -2.8935   -1.2320 C   0  0  0  0  0  0
   -3.8779   -1.7195   -0.4895 C   0  0  0  0  0  0
   -2.9219   -1.7736    0.5488 C   0  0  0  0  0  0
   -2.2513   -2.9766    0.8376 C   0  0  0  0  0  0
   -2.5413   -4.1403    0.1028 C   0  0  0  0  0  0
   -4.6887   -0.4725   -0.7271 C   0  0  0  0  0  0
   -5.9150   -0.5481   -0.7230 O   0  0  0  0  0  0
   -4.0733    0.7098   -0.9446 N   0  0  0  0  0  0
   -2.6701    0.9964   -1.2571 C   0  0  1  0  0  0
   -2.5193    1.7805   -2.5993 C   0  0  0  0  0  0
   -1.9902    1.6861   -0.0406 C   0  0  2  0  0  0
   -2.3634    3.0480    0.0290 O   0  0  0  0  0  0
   -0.4502    1.6336   -0.0785 C   0  0  0  0  0  0
    0.0355    0.2372    0.0130 N   0  3  0  0  0  0
    1.5006   -0.0092   -0.0497 C   0  0  0  0  0  0
    2.0848    0.5288   -1.3758 C   0  0  0  0  0  0
    2.2293    0.6578    1.1359 C   0  0  0  0  0  0
    1.6853   -1.5134    0.0270 C   0  0  0  0  0  0
    2.3153   -2.3937   -0.8997 C   0  0  0  0  0  0
    2.1345   -3.6334   -0.3566 C   0  0  0  0  0  0
    2.5108   -5.0074   -0.8146 C   0  0  0  0  0  0
    1.3461   -5.8788   -1.3598 C   0  0  0  0  0  0
    0.5946   -6.5404   -0.1882 C   0  0  0  0  0  0
    1.9304   -6.9886   -2.2547 C   0  0  0  0  0  0
    0.3492   -5.0483   -2.1969 C   0  0  0  0  0  0
    1.4534   -3.5363    0.8122 O   0  0  0  0  0  0
    1.1682   -2.1878    1.0457 N   0  0  0  0  0  0
   -2.7099    1.6940   -4.7217 H   0  0  0  0  0  0
   -2.1619    0.0447   -1.3987 H   0  0  0  0  0  0
   -2.3240    1.2242    0.8881 H   0  0  0  0  0  0
   -5.2768    0.8796   -3.3099 H   0  0  0  0  0  0
   -5.0483    1.3416   -4.9860 H   0  0  0  0  0  0
   -4.8780    2.5434   -3.7282 H   0  0  0  0  0  0
   -1.7639   -0.4541   -4.0365 H   0  0  0  0  0  0
   -3.2029   -0.8279   -3.1393 H   0  0  0  0  0  0
   -4.5263   -0.8653   -5.2805 H   0  0  0  0  0  0
   -3.0280   -0.6976   -6.1734 H   0  0  0  0  0  0
   -2.1917   -2.8226   -5.2536 H   0  0  0  0  0  0
   -3.4253   -2.7841   -4.0240 H   0  0  0  0  0  0
   -5.1949   -3.1044   -5.7983 H   0  0  0  0  0  0
   -3.9151   -3.3668   -6.9534 H   0  0  0  0  0  0
   -4.7942   -5.4935   -6.1325 H   0  0  0  0  0  0
   -3.1266   -5.3582   -5.6644 H   0  0  0  0  0  0
   -5.2469   -4.4380   -3.6950 H   0  0  0  0  0  0
   -5.0924   -6.1451   -3.9652 H   0  0  0  0  0  0
   -2.8221   -6.2359   -3.2178 H   0  0  0  0  0  0
   -2.6151   -4.5187   -3.2086 H   0  0  0  0  0  0
   -3.4707   -6.1247   -1.1478 H   0  0  0  0  0  0
   -4.9038   -2.8683   -2.0090 H   0  0  0  0  0  0
   -2.7228   -0.9072    1.1587 H   0  0  0  0  0  0
   -1.5308   -3.0144    1.6411 H   0  0  0  0  0  0
   -2.0353   -5.0628    0.3448 H   0  0  0  0  0  0
   -4.6932    1.5009   -1.0442 H   0  0  0  0  0  0
   -1.4540    1.8845   -2.8047 H   0  0  0  0  0  0
   -2.8831    2.8011   -2.4794 H   0  0  0  0  0  0
   -3.3031    3.0998    0.1199 H   0  0  0  0  0  0
   -0.0866    2.1126   -0.9858 H   0  0  0  0  0  0
   -0.0516    2.2021    0.7620 H   0  0  0  0  0  0
   -0.2997   -0.1530    0.8824 H   0  0  0  0  0  0
    3.1400    0.2707   -1.4748 H   0  0  0  0  0  0
    2.0293    1.6152   -1.4406 H   0  0  0  0  0  0
    1.5614    0.1180   -2.2404 H   0  0  0  0  0  0
    3.2871    0.3916    1.1428 H   0  0  0  0  0  0
    1.8088    0.3476    2.0932 H   0  0  0  0  0  0
    2.1755    1.7456    1.0897 H   0  0  0  0  0  0
    2.8102   -2.1611   -1.8310 H   0  0  0  0  0  0
    3.2586   -4.8895   -1.5999 H   0  0  0  0  0  0
    3.0276   -5.5317   -0.0097 H   0  0  0  0  0  0
   -0.2328   -7.1556   -0.5437 H   0  0  0  0  0  0
    0.1789   -5.7987    0.4928 H   0  0  0  0  0  0
    1.2538   -7.1837    0.3955 H   0  0  0  0  0  0
    2.6433   -7.6058   -1.7064 H   0  0  0  0  0  0
    2.4512   -6.5729   -3.1182 H   0  0  0  0  0  0
    1.1487   -7.6485   -2.6329 H   0  0  0  0  0  0
   -0.4143   -5.6857   -2.6428 H   0  0  0  0  0  0
    0.8537   -4.5256   -3.0102 H   0  0  0  0  0  0
   -0.1705   -4.3016   -1.5961 H   0  0  0  0  0  0
   -0.3867   -0.2834   -0.7425 H   0  0  0  0  0  0
  1  2  1  0  0  0
  1 42  1  0  0  0
  1 43  1  0  0  0
  1 44  1  0  0  0
  2 39  1  0  0  0
  2 21  1  0  0  0
  2  3  1  0  0  0
  3  4  1  0  0  0
  3 45  1  0  0  0
  3 46  1  0  0  0
  4  5  1  0  0  0
  4 47  1  0  0  0
  4 48  1  0  0  0
  5  6  1  0  0  0
  5 49  1  0  0  0
  5 50  1  0  0  0
  6  7  1  0  0  0
  6 51  1  0  0  0
  6 52  1  0  0  0
  7  8  1  0  0  0
  7 53  1  0  0  0
  7 54  1  0  0  0
  8  9  1  0  0  0
  8 55  1  0  0  0
  8 56  1  0  0  0
  9 10  1  0  0  0
  9 57  1  0  0  0
  9 58  1  0  0  0
 10 11  1  0  0  0
 10 59  1  0  0  0
 11 16  1  0  0  0
 11 12  2  0  0  0
 12 13  1  0  0  0
 12 60  1  0  0  0
 13 14  2  0  0  0
 13 17  1  0  0  0
 14 15  1  0  0  0
 14 61  1  0  0  0
 15 16  2  0  0  0
 15 62  1  0  0  0
 16 63  1  0  0  0
 17 18  2  0  0  0
 17 19  1  0  0  0
 19 20  1  0  0  0
 19 64  1  0  0  0
 20 40  1  0  0  0
 20 21  1  0  0  0
 20 22  1  0  0  0
 21 65  1  0  0  0
 21 66  1  0  0  0
 22 41  1  0  0  0
 22 23  1  0  0  0
 22 24  1  0  0  0
 23 67  1  0  0  0
 24 25  1  0  0  0
 24 68  1  0  0  0
 24 69  1  0  0  0
 25 26  1  0  0  0
 25 70  1  0  0  0
 25 89  1  0  0  0
 26 27  1  0  0  0
 26 28  1  0  0  0
 26 29  1  0  0  0
 27 71  1  0  0  0
 27 72  1  0  0  0
 27 73  1  0  0  0
 28 74  1  0  0  0
 28 75  1  0  0  0
 28 76  1  0  0  0
 29 38  2  0  0  0
 29 30  1  0  0  0
 30 31  2  0  0  0
 30 77  1  0  0  0
 31 32  1  0  0  0
 31 37  1  0  0  0
 32 33  1  0  0  0
 32 78  1  0  0  0
 32 79  1  0  0  0
 33 34  1  0  0  0
 33 35  1  0  0  0
 33 36  1  0  0  0
 34 80  1  0  0  0
 34 81  1  0  0  0
 34 82  1  0  0  0
 35 83  1  0  0  0
 35 84  1  0  0  0
 35 85  1  0  0  0
 36 86  1  0  0  0
 36 87  1  0  0  0
 36 88  1  0  0  0
 37 38  1  0  0  0
M  CHG  1  25   1
M  END
> <s_m_source_file>
BACE_57.smi

> <i_m_source_file_index>
1

> <i_lp_mmshare_version>
42013

> <i_f3d_flags>
0

> <s_epik_input>
W05IXTFbQ0gyXVtDSDJdW0NIMl1bQ0gyXVtDSDJdW0NIMl1bQ0gyXVtDQEBIXShbQ0gzXSlbQ0gyXVtDQEhdKFtOSF1DKD1PKWMoW2NIXWMxMilbY0hdW2NIXVtjSF0yKVtDQEhdKFtPSF0pW0NIMl1bTkhdQyhbQ0gzXSkoW0NIM10pYzNbY0hdYyhvbjMpW0NIMl1DKFtDSDNdKShbQ0gzXSlbQ0gzXQ==

> <s_epik_cmdline>
J2VwaWtfcHl0aG9uJywgJy1waCcsICc3LjAnLCAnLXRuJywgJzgnLCAnLW1hJywgJzIwMCcsICctaW1hZScsICc8aW5maWxlLm1hZT4nLCAnLW9tYWUnLCAnPG91dGZpbGUubWFlPic=

> <r_epik_Ionization_Penalty>
0.215017

> <r_epik_Ionization_Penalty_Charging>
0.214313

> <r_epik_Ionization_Penalty_Neutral>
0.000704103

> <r_epik_State_Penalty>
0.204486

> <r_epik_Charging_Adjusted_Penalty>
0.418799

> <i_epik_Tot_Q>
1

> <i_epik_Tot_abs_Q>
1

> <s_lp_Force_Field>
OPLS_2005

> <r_lp_Energy>
40.582

> <b_lp_Chiralities_Consistent>
1

> <s_lp_Variant>
BACE_57.smi:1-1

$$$$
BACE_57.smi:1
                    3D
 Structure written by MMmdl.
 88 90  0  0  1  0            999 V2000
   -2.2674    2.7929   -4.2678 C   0  0  0  0  0  0
   -2.9308    2.4753   -2.9174 C   0  0  2  0  0  0
   -4.4283    2.8612   -2.9319 C   0  0  0  0  0  0
   -5.3566    2.0047   -3.8206 C   0  0  0  0  0  0
   -5.3758    0.4842   -3.5454 C   0  0  0  0  0  0
   -5.3944    0.0568   -2.0656 C   0  0  0  0  0  0
   -6.5432    0.6337   -1.2189 C   0  0  0  0  0  0
   -6.2768    0.4382    0.2808 C   0  0  0  0  0  0
   -7.0512    1.4257    1.1692 C   0  0  0  0  0  0
   -6.6463    1.3411    2.5666 N   0  0  0  0  0  0
   -5.3352    1.6783    2.9419 C   0  0  0  0  0  0
   -4.5393    2.6050    2.2226 C   0  0  0  0  0  0
   -3.2114    2.8772    2.6256 C   0  0  0  0  0  0
   -2.6973    2.2485    3.7793 C   0  0  0  0  0  0
   -3.4856    1.3365    4.5039 C   0  0  0  0  0  0
   -4.7979    1.0526    4.0848 C   0  0  0  0  0  0
   -2.3584    3.8815    1.9039 C   0  0  0  0  0  0
   -1.8859    4.8272    2.5311 O   0  0  0  0  0  0
   -2.0756    3.7123    0.5972 N   0  0  0  0  0  0
   -2.4490    2.6445   -0.3376 C   0  0  1  0  0  0
   -2.1883    3.1963   -1.7652 C   0  0  0  0  0  0
   -1.6658    1.3174   -0.0913 C   0  0  2  0  0  0
   -2.4686    0.4466    0.6797 O   0  0  0  0  0  0
   -0.2885    1.4702    0.5853 C   0  0  0  0  0  0
    0.5228    0.2622    0.4007 N   0  0  0  0  0  0
    1.9027    0.2621    0.9253 C   0  0  0  0  0  0
    2.7515    1.2839    0.1363 C   0  0  0  0  0  0
    1.9024    0.6122    2.4310 C   0  0  0  0  0  0
    2.4826   -1.1313    0.7406 C   0  0  0  0  0  0
    1.8520   -2.3043    0.2312 C   0  0  0  0  0  0
    2.8178   -3.2658    0.3147 C   0  0  0  0  0  0
    2.8317   -4.7237   -0.0226 C   0  0  0  0  0  0
    2.8463   -5.7013    1.1861 C   0  0  0  0  0  0
    4.2959   -5.9245    1.6597 C   0  0  0  0  0  0
    2.2625   -7.0558    0.7387 C   0  0  0  0  0  0
    2.0071   -5.1725    2.3702 C   0  0  0  0  0  0
    3.9588   -2.7383    0.8235 O   0  0  0  0  0  0
    3.7364   -1.3843    1.0937 N   0  0  0  0  0  0
   -2.8344    1.4023   -2.7674 H   0  0  0  0  0  0
   -3.5161    2.4605   -0.2441 H   0  0  0  0  0  0
   -1.5241    0.8128   -1.0469 H   0  0  0  0  0  0
   -2.3241    3.8573   -4.4975 H   0  0  0  0  0  0
   -2.7439    2.2494   -5.0836 H   0  0  0  0  0  0
   -1.2147    2.5086   -4.2646 H   0  0  0  0  0  0
   -4.8213    2.8476   -1.9189 H   0  0  0  0  0  0
   -4.5199    3.9027   -3.2425 H   0  0  0  0  0  0
   -6.3713    2.3870   -3.7053 H   0  0  0  0  0  0
   -5.1118    2.1683   -4.8702 H   0  0  0  0  0  0
   -6.2337    0.0465   -4.0569 H   0  0  0  0  0  0
   -4.4983    0.0363   -4.0133 H   0  0  0  0  0  0
   -5.4267   -1.0319   -2.0101 H   0  0  0  0  0  0
   -4.4420    0.3358   -1.6179 H   0  0  0  0  0  0
   -6.6531    1.6986   -1.4154 H   0  0  0  0  0  0
   -7.4934    0.1793   -1.5004 H   0  0  0  0  0  0
   -6.5000   -0.5897    0.5686 H   0  0  0  0  0  0
   -5.2121    0.5723    0.4631 H   0  0  0  0  0  0
   -6.9296    2.4489    0.8146 H   0  0  0  0  0  0
   -8.1180    1.2101    1.1088 H   0  0  0  0  0  0
   -7.1148    0.6435    3.1272 H   0  0  0  0  0  0
   -4.9423    3.1191    1.3635 H   0  0  0  0  0  0
   -1.6917    2.4610    4.1130 H   0  0  0  0  0  0
   -3.0830    0.8547    5.3825 H   0  0  0  0  0  0
   -5.3917    0.3455    4.6457 H   0  0  0  0  0  0
   -1.4872    4.4276    0.1955 H   0  0  0  0  0  0
   -1.1130    3.1683   -1.9483 H   0  0  0  0  0  0
   -2.4565    4.2536   -1.8083 H   0  0  0  0  0  0
   -3.2834    0.3035    0.2231 H   0  0  0  0  0  0
    0.2196    2.3229    0.1371 H   0  0  0  0  0  0
   -0.4205    1.6969    1.6427 H   0  0  0  0  0  0
    0.5485    0.0373   -0.5885 H   0  0  0  0  0  0
    3.7931    1.2713    0.4590 H   0  0  0  0  0  0
    2.3999    2.3062    0.2738 H   0  0  0  0  0  0
    2.7387    1.0686   -0.9329 H   0  0  0  0  0  0
    2.9056    0.5503    2.8536 H   0  0  0  0  0  0
    1.2677   -0.0716    2.9964 H   0  0  0  0  0  0
    1.5524    1.6269    2.6202 H   0  0  0  0  0  0
    0.8408   -2.4284   -0.1267 H   0  0  0  0  0  0
    1.9405   -4.9190   -0.6205 H   0  0  0  0  0  0
    3.6679   -4.9358   -0.6899 H   0  0  0  0  0  0
    4.3374   -6.6259    2.4939 H   0  0  0  0  0  0
    4.7552   -4.9943    1.9950 H   0  0  0  0  0  0
    4.9193   -6.3300    0.8620 H   0  0  0  0  0  0
    2.8218   -7.4712   -0.1004 H   0  0  0  0  0  0
    1.2225   -6.9576    0.4247 H   0  0  0  0  0  0
    2.2906   -7.7886    1.5460 H   0  0  0  0  0  0
    1.9577   -5.9044    3.1772 H   0  0  0  0  0  0
    0.9834   -4.9543    2.0641 H   0  0  0  0  0  0
    2.4274   -4.2603    2.7950 H   0  0  0  0  0  0
  1  2  1  0  0  0
  1 42  1  0  0  0
  1 43  1  0  0  0
  1 44  1  0  0  0
  2 39  1  0  0  0
  2 21  1  0  0  0
  2  3  1  0  0  0
  3  4  1  0  0  0
  3 45  1  0  0  0
  3 46  1  0  0  0
  4  5  1  0  0  0
  4 47  1  0  0  0
  4 48  1  0  0  0
  5  6  1  0  0  0
  5 49  1  0  0  0
  5 50  1  0  0  0
  6  7  1  0  0  0
  6 51  1  0  0  0
  6 52  1  0  0  0
  7  8  1  0  0  0
  7 53  1  0  0  0
  7 54  1  0  0  0
  8  9  1  0  0  0
  8 55  1  0  0  0
  8 56  1  0  0  0
  9 10  1  0  0  0
  9 57  1  0  0  0
  9 58  1  0  0  0
 10 11  1  0  0  0
 10 59  1  0  0  0
 11 16  1  0  0  0
 11 12  2  0  0  0
 12 13  1  0  0  0
 12 60  1  0  0  0
 13 14  2  0  0  0
 13 17  1  0  0  0
 14 15  1  0  0  0
 14 61  1  0  0  0
 15 16  2  0  0  0
 15 62  1  0  0  0
 16 63  1  0  0  0
 17 18  2  0  0  0
 17 19  1  0  0  0
 19 20  1  0  0  0
 19 64  1  0  0  0
 20 40  1  0  0  0
 20 21  1  0  0  0
 20 22  1  0  0  0
 21 65  1  0  0  0
 21 66  1  0  0  0
 22 41  1  0  0  0
 22 23  1  0  0  0
 22 24  1  0  0  0
 23 67  1  0  0  0
 24 25  1  0  0  0
 24 68  1  0  0  0
 24 69  1  0  0  0
 25 26  1  0  0  0
 25 70  1  0  0  0
 26 27  1  0  0  0
 26 28  1  0  0  0
 26 29  1  0  0  0
 27 71  1  0  0  0
 27 72  1  0  0  0
 27 73  1  0  0  0
 28 74  1  0  0  0
 28 75  1  0  0  0
 28 76  1  0  0  0
 29 38  2  0  0  0
 29 30  1  0  0  0
 30 31  2  0  0  0
 30 77  1  0  0  0
 31 32  1  0  0  0
 31 37  1  0  0  0
 32 33  1  0  0  0
 32 78  1  0  0  0
 32 79  1  0  0  0
 33 34  1  0  0  0
 33 35  1  0  0  0
 33 36  1  0  0  0
 34 80  1  0  0  0
 34 81  1  0  0  0
 34 82  1  0  0  0
 35 83  1  0  0  0
 35 84  1  0  0  0
 35 85  1  0  0  0
 36 86  1  0  0  0
 36 87  1  0  0  0
 36 88  1  0  0  0
 37 38  1  0  0  0
M  END
> <s_m_source_file>
BACE_57.smi

> <i_m_source_file_index>
1

> <i_lp_mmshare_version>
42013

> <i_f3d_flags>
0

> <s_epik_input>
W05IXTFbQ0gyXVtDSDJdW0NIMl1bQ0gyXVtDSDJdW0NIMl1bQ0gyXVtDQEBIXShbQ0gzXSlbQ0gyXVtDQEhdKFtOSF1DKD1PKWMoW2NIXWMxMilbY0hdW2NIXVtjSF0yKVtDQEhdKFtPSF0pW0NIMl1bTkhdQyhbQ0gzXSkoW0NIM10pYzNbY0hdYyhvbjMpW0NIMl1DKFtDSDNdKShbQ0gzXSlbQ0gzXQ==

> <s_epik_cmdline>
J2VwaWtfcHl0aG9uJywgJy1waCcsICc3LjAnLCAnLXRuJywgJzgnLCAnLW1hJywgJzIwMCcsICctaW1hZScsICc8aW5maWxlLm1hZT4nLCAnLW9tYWUnLCAnPG91dGZpbGUubWFlPic=

> <r_epik_Ionization_Penalty>
0.707225

> <r_epik_Ionization_Penalty_Charging>
0

> <r_epik_Ionization_Penalty_Neutral>
0.707225

> <r_epik_State_Penalty>
0.729607

> <r_epik_Charging_Adjusted_Penalty>
0.729607

> <i_epik_Tot_Q>
0

> <i_epik_Tot_abs_Q>
0

> <s_lp_Force_Field>
OPLS_2005

> <r_lp_Energy>
43.6663

> <b_lp_Chiralities_Consistent>
1

> <s_lp_Variant>
BACE_57.smi:1-2

$$$$
