BACE_81.smi:1
                    3D
 Structure written by MMmdl.
 91 95  0  0  1  0            999 V2000
    0.1396    1.4149   -3.9465 C   0  0  0  0  0  0
   -0.7930    1.5737   -2.7335 C   0  0  2  0  0  0
   -2.1823    2.0525   -3.2232 C   0  0  0  0  0  0
   -3.3070    2.1257   -2.1750 C   0  0  0  0  0  0
   -3.6920    0.7699   -1.5547 C   0  0  0  0  0  0
   -4.6457    0.8458   -0.3464 C   0  0  0  0  0  0
   -6.0997    1.2697   -0.6491 C   0  0  0  0  0  0
   -6.3975    2.7844   -0.6633 C   0  0  0  0  0  0
   -6.4038    3.4685    0.7221 C   0  0  0  0  0  0
   -5.1141    3.5419    1.3221 O   0  0  0  0  0  0
   -4.1482    4.3425    0.7498 C   0  0  0  0  0  0
   -4.4158    5.3864   -0.1695 C   0  0  0  0  0  0
   -3.3624    6.1380   -0.7343 C   0  0  0  0  0  0
   -2.0297    5.8425   -0.3769 C   0  0  0  0  0  0
   -1.7490    4.7991    0.5278 C   0  0  0  0  0  0
   -2.8123    4.0766    1.1078 C   0  0  0  0  0  0
   -0.3282    4.5002    0.9008 C   0  0  0  0  0  0
    0.3553    5.3687    1.4382 O   0  0  0  0  0  0
    0.1708    3.2806    0.6260 N   0  0  0  0  0  0
   -0.4046    2.1993   -0.1843 C   0  0  1  0  0  0
   -0.1324    2.5077   -1.6824 C   0  0  0  0  0  0
    0.1918    0.8422    0.2814 C   0  0  2  0  0  0
   -0.4880    0.4533    1.4588 O   0  0  0  0  0  0
    1.7102    0.8579    0.5549 C   0  0  0  0  0  0
    2.2834   -0.4818    0.4462 N   0  0  0  0  0  0
    3.7364   -0.5375    0.5951 C   0  0  0  0  0  0
    4.6121    0.0124   -0.5125 C   0  0  0  0  0  0
    4.4746   -1.4781   -0.3336 C   0  0  0  0  0  0
    4.1705   -0.4673    2.0304 C   0  0  0  0  0  0
    4.1873   -1.6149    2.8501 C   0  0  0  0  0  0
    4.5888   -1.5014    4.2016 C   0  0  0  0  0  0
    4.9500   -0.2122    4.6633 C   0  0  0  0  0  0
    4.8912    0.8751    3.7700 C   0  0  0  0  0  0
    4.5090    0.7598    2.4822 N   0  0  0  0  0  0
    4.6113   -2.7475    5.1039 C   0  0  0  0  0  0
    5.1368   -2.4476    6.5255 C   0  0  0  0  0  0
    5.5266   -3.8235    4.4834 C   0  0  0  0  0  0
    3.1812   -3.3091    5.2356 C   0  0  0  0  0  0
   -3.6544    7.2057   -1.6869 C   0  0  0  0  0  0
   -4.8404    7.6074   -2.1464 N   0  0  0  0  0  0
   -4.5614    8.6446   -3.0236 C   0  0  0  0  0  0
   -3.2036    8.8210   -3.0529 C   0  0  0  0  0  0
   -2.6165    7.9158   -2.2114 O   0  0  0  0  0  0
   -0.9041    0.5728   -2.3264 H   0  0  0  0  0  0
   -1.4789    2.1472   -0.0343 H   0  0  0  0  0  0
   -0.0304    0.0728   -0.4552 H   0  0  0  0  0  0
    0.3219    2.3727   -4.4351 H   0  0  0  0  0  0
   -0.2863    0.7388   -4.6885 H   0  0  0  0  0  0
    1.1048    1.0019   -3.6512 H   0  0  0  0  0  0
   -2.0741    3.0373   -3.6796 H   0  0  0  0  0  0
   -2.5186    1.3956   -4.0266 H   0  0  0  0  0  0
   -3.0429    2.8439   -1.4043 H   0  0  0  0  0  0
   -4.1825    2.5385   -2.6734 H   0  0  0  0  0  0
   -4.1157    0.1219   -2.3227 H   0  0  0  0  0  0
   -2.7902    0.2672   -1.2081 H   0  0  0  0  0  0
   -4.6913   -0.1595    0.0739 H   0  0  0  0  0  0
   -4.2049    1.4515    0.4417 H   0  0  0  0  0  0
   -6.3985    0.8382   -1.6051 H   0  0  0  0  0  0
   -6.7557    0.8075    0.0896 H   0  0  0  0  0  0
   -5.7380    3.3077   -1.3498 H   0  0  0  0  0  0
   -7.3949    2.9109   -1.0852 H   0  0  0  0  0  0
   -6.8582    4.4578    0.6688 H   0  0  0  0  0  0
   -7.0442    2.8998    1.3965 H   0  0  0  0  0  0
   -5.4286    5.6211   -0.4571 H   0  0  0  0  0  0
   -1.2133    6.4066   -0.8047 H   0  0  0  0  0  0
   -2.6037    3.2855    1.8141 H   0  0  0  0  0  0
    1.1182    3.1190    0.9358 H   0  0  0  0  0  0
    0.9487    2.4977   -1.8246 H   0  0  0  0  0  0
   -0.4278    3.5333   -1.9075 H   0  0  0  0  0  0
   -0.2968    1.0825    2.1375 H   0  0  0  0  0  0
    2.1963    1.5021   -0.1774 H   0  0  0  0  0  0
    1.9205    1.2936    1.5324 H   0  0  0  0  0  0
    1.9992   -0.9292   -0.4190 H   0  0  0  0  0  0
    4.1283    0.4460   -1.3856 H   0  0  0  0  0  0
    5.5618    0.4648   -0.2335 H   0  0  0  0  0  0
    5.3392   -2.0114    0.0570 H   0  0  0  0  0  0
    3.9032   -2.0096   -1.0922 H   0  0  0  0  0  0
    3.8903   -2.5675    2.4372 H   0  0  0  0  0  0
    5.2666   -0.0303    5.6784 H   0  0  0  0  0  0
    5.1590    1.8676    4.1010 H   0  0  0  0  0  0
    5.1533   -3.3497    7.1382 H   0  0  0  0  0  0
    4.5076   -1.7238    7.0448 H   0  0  0  0  0  0
    6.1552   -2.0576    6.5041 H   0  0  0  0  0  0
    6.5436   -3.4501    4.3576 H   0  0  0  0  0  0
    5.1736   -4.1503    3.5054 H   0  0  0  0  0  0
    5.5796   -4.7112    5.1141 H   0  0  0  0  0  0
    3.1581   -4.1894    5.8788 H   0  0  0  0  0  0
    2.7684   -3.6048    4.2708 H   0  0  0  0  0  0
    2.5063   -2.5696    5.6678 H   0  0  0  0  0  0
   -5.3425    9.1702   -3.5527 H   0  0  0  0  0  0
   -2.5448    9.4957   -3.5792 H   0  0  0  0  0  0
  1  2  1  0  0  0
  1 47  1  0  0  0
  1 48  1  0  0  0
  1 49  1  0  0  0
  2 44  1  0  0  0
  2 21  1  0  0  0
  2  3  1  0  0  0
  3  4  1  0  0  0
  3 50  1  0  0  0
  3 51  1  0  0  0
  4  5  1  0  0  0
  4 52  1  0  0  0
  4 53  1  0  0  0
  5  6  1  0  0  0
  5 54  1  0  0  0
  5 55  1  0  0  0
  6  7  1  0  0  0
  6 56  1  0  0  0
  6 57  1  0  0  0
  7  8  1  0  0  0
  7 58  1  0  0  0
  7 59  1  0  0  0
  8  9  1  0  0  0
  8 60  1  0  0  0
  8 61  1  0  0  0
  9 10  1  0  0  0
  9 62  1  0  0  0
  9 63  1  0  0  0
 10 11  1  0  0  0
 11 16  1  0  0  0
 11 12  2  0  0  0
 12 13  1  0  0  0
 12 64  1  0  0  0
 13 14  2  0  0  0
 13 39  1  0  0  0
 14 15  1  0  0  0
 14 65  1  0  0  0
 15 16  2  0  0  0
 15 17  1  0  0  0
 16 66  1  0  0  0
 17 18  2  0  0  0
 17 19  1  0  0  0
 19 20  1  0  0  0
 19 67  1  0  0  0
 20 45  1  0  0  0
 20 21  1  0  0  0
 20 22  1  0  0  0
 21 68  1  0  0  0
 21 69  1  0  0  0
 22 46  1  0  0  0
 22 23  1  0  0  0
 22 24  1  0  0  0
 23 70  1  0  0  0
 24 25  1  0  0  0
 24 71  1  0  0  0
 24 72  1  0  0  0
 25 26  1  0  0  0
 25 73  1  0  0  0
 26 28  1  0  0  0
 26 27  1  0  0  0
 26 29  1  0  0  0
 27 28  1  0  0  0
 27 74  1  0  0  0
 27 75  1  0  0  0
 28 76  1  0  0  0
 28 77  1  0  0  0
 29 34  1  0  0  0
 29 30  2  0  0  0
 30 31  1  0  0  0
 30 78  1  0  0  0
 31 32  2  0  0  0
 31 35  1  0  0  0
 32 33  1  0  0  0
 32 79  1  0  0  0
 33 34  2  0  0  0
 33 80  1  0  0  0
 35 36  1  0  0  0
 35 37  1  0  0  0
 35 38  1  0  0  0
 36 81  1  0  0  0
 36 82  1  0  0  0
 36 83  1  0  0  0
 37 84  1  0  0  0
 37 85  1  0  0  0
 37 86  1  0  0  0
 38 87  1  0  0  0
 38 88  1  0  0  0
 38 89  1  0  0  0
 39 43  1  0  0  0
 39 40  2  0  0  0
 40 41  1  0  0  0
 41 42  2  0  0  0
 41 90  1  0  0  0
 42 43  1  0  0  0
 42 91  1  0  0  0
M  END
> <s_m_source_file>
BACE_81.smi

> <i_m_source_file_index>
1

> <i_lp_mmshare_version>
42013

> <i_f3d_flags>
0

> <s_epik_input>
TzFbQ0gyXVtDSDJdW0NIMl1bQ0gyXVtDSDJdW0NIMl1bQ0gyXVtDQEBIXShbQ0gzXSlbQ0gyXVtDQEhdKFtOSF1DKD1PKWMoW2NIXTIpW2NIXWMoW2NIXWMxMiktYzNuW2NIXVtjSF1vMylbQ0BIXShbT0hdKVtDSDJdW05IXUM0KFtDSDJdW0NIMl00KWM1W2NIXWMoW2NIXVtjSF1uNSlDKFtDSDNdKShbQ0gzXSlbQ0gzXQ==

> <s_epik_cmdline>
J2VwaWtfcHl0aG9uJywgJy1waCcsICc3LjAnLCAnLXRuJywgJzgnLCAnLW1hJywgJzIwMCcsICctaW1hZScsICc8aW5maWxlLm1hZT4nLCAnLW9tYWUnLCAnPG91dGZpbGUubWFlPic=

> <r_lp_tautomer_probability>
1

> <r_epik_Ionization_Penalty>
0.217567

> <r_epik_Ionization_Penalty_Charging>
0

> <r_epik_Ionization_Penalty_Neutral>
0.217567

> <r_epik_State_Penalty>
0.0835319

> <r_epik_Charging_Adjusted_Penalty>
0.0835319

> <i_epik_Tot_Q>
0

> <i_epik_Tot_abs_Q>
0

> <s_lp_Force_Field>
OPLS_2005

> <r_lp_Energy>
54.7295

> <b_lp_Chiralities_Consistent>
1

> <s_lp_Variant>
BACE_81.smi:1-1

$$$$
BACE_81.smi:1
                    3D
 Structure written by MMmdl.
 92 96  0  0  1  0            999 V2000
    0.8008    1.6495   -3.4939 C   0  0  0  0  0  0
   -0.3607    1.5731   -2.4879 C   0  0  2  0  0  0
   -1.6078    2.2662   -3.0901 C   0  0  0  0  0  0
   -2.9103    2.1848   -2.2730 C   0  0  0  0  0  0
   -3.4667    0.7594   -2.1018 C   0  0  0  0  0  0
   -4.6259    0.6229   -1.0955 C   0  0  0  0  0  0
   -5.9727    1.2485   -1.5196 C   0  0  0  0  0  0
   -6.1878    2.7383   -1.1772 C   0  0  0  0  0  0
   -6.4420    3.0398    0.3169 C   0  0  0  0  0  0
   -5.2976    2.8300    1.1383 O   0  0  0  0  0  0
   -4.2017    3.6535    0.9898 C   0  0  0  0  0  0
   -4.2333    4.9201    0.3566 C   0  0  0  0  0  0
   -3.0558    5.6859    0.2164 C   0  0  0  0  0  0
   -1.8351    5.1803    0.7118 C   0  0  0  0  0  0
   -1.7875    3.9164    1.3332 C   0  0  0  0  0  0
   -2.9774    3.1766    1.4964 C   0  0  0  0  0  0
   -0.4823    3.3890    1.8490 C   0  0  0  0  0  0
    0.1242    4.0079    2.7205 O   0  0  0  0  0  0
    0.0026    2.2456    1.3295 N   0  0  0  0  0  0
   -0.4683    1.4857    0.1646 C   0  0  1  0  0  0
    0.0855    2.1620   -1.1227 C   0  0  0  0  0  0
   -0.0552   -0.0023    0.3266 C   0  0  2  0  0  0
   -0.8101   -0.5537    1.3873 O   0  0  0  0  0  0
    1.4464   -0.2263    0.6011 C   0  0  0  0  0  0
    1.9326   -1.4282   -0.0747 N   0  0  0  0  0  0
    3.3865   -1.5179   -0.1864 C   0  0  0  0  0  0
    4.0407   -2.8329    0.1749 C   0  0  0  0  0  0
    4.2120   -1.6351    1.0777 C   0  0  0  0  0  0
    3.8958   -0.7369   -1.3614 C   0  0  0  0  0  0
    4.3826    0.5841   -1.2602 C   0  0  0  0  0  0
    4.7899    1.2853   -2.4239 C   0  0  0  0  0  0
    4.6978    0.6089   -3.6652 C   0  0  0  0  0  0
    4.2092   -0.7111   -3.7126 C   0  0  0  0  0  0
    3.8256   -1.3255   -2.5751 N   0  3  0  0  0  0
    5.3015    2.7363   -2.3791 C   0  0  0  0  0  0
    6.7194    2.8079   -2.9831 C   0  0  0  0  0  0
    5.3745    3.3036   -0.9433 C   0  0  0  0  0  0
    4.3515    3.6384   -3.1935 C   0  0  0  0  0  0
   -3.1047    6.9862   -0.4458 C   0  0  0  0  0  0
   -4.1559    7.6026   -0.9883 N   0  0  0  0  0  0
   -3.6629    8.8007   -1.4828 C   0  0  0  0  0  0
   -2.3213    8.8504   -1.2124 C   0  0  0  0  0  0
   -1.9541    7.7075   -0.5563 O   0  0  0  0  0  0
   -0.5763    0.5135   -2.3857 H   0  0  0  0  0  0
   -1.5535    1.5006    0.1227 H   0  0  0  0  0  0
   -0.3548   -0.5558   -0.5616 H   0  0  0  0  0  0
    1.1043    2.6814   -3.6735 H   0  0  0  0  0  0
    0.5232    1.2123   -4.4533 H   0  0  0  0  0  0
    1.6722    1.1038   -3.1305 H   0  0  0  0  0  0
   -1.3768    3.3186   -3.2601 H   0  0  0  0  0  0
   -1.8034    1.8483   -4.0787 H   0  0  0  0  0  0
   -2.7691    2.6642   -1.3077 H   0  0  0  0  0  0
   -3.6548    2.7856   -2.7931 H   0  0  0  0  0  0
   -3.7684    0.3649   -3.0727 H   0  0  0  0  0  0
   -2.6700    0.1049   -1.7516 H   0  0  0  0  0  0
   -4.8000   -0.4462   -0.9679 H   0  0  0  0  0  0
   -4.3127    0.9689   -0.1132 H   0  0  0  0  0  0
   -6.1026    1.1062   -2.5929 H   0  0  0  0  0  0
   -6.7797    0.6794   -1.0566 H   0  0  0  0  0  0
   -5.3780    3.3508   -1.5640 H   0  0  0  0  0  0
   -7.0719    3.0683   -1.7232 H   0  0  0  0  0  0
   -6.8315    4.0487    0.4529 H   0  0  0  0  0  0
   -7.2304    2.3817    0.6830 H   0  0  0  0  0  0
   -5.1567    5.3184   -0.0335 H   0  0  0  0  0  0
   -0.9251    5.7533    0.6047 H   0  0  0  0  0  0
   -2.9495    2.2139    1.9864 H   0  0  0  0  0  0
    0.8586    1.9061    1.7429 H   0  0  0  0  0  0
    1.1740    2.1489   -1.0682 H   0  0  0  0  0  0
   -0.1668    3.2232   -1.1124 H   0  0  0  0  0  0
   -0.6306   -1.4800    1.4370 H   0  0  0  0  0  0
    2.0081    0.6312    0.2356 H   0  0  0  0  0  0
    1.6481   -0.2724    1.6721 H   0  0  0  0  0  0
    1.5507   -2.2661    0.3530 H   0  0  0  0  0  0
    3.4106   -3.6384    0.5473 H   0  0  0  0  0  0
    4.9086   -3.1484   -0.4011 H   0  0  0  0  0  0
    5.1914   -1.1608    1.0946 H   0  0  0  0  0  0
    3.6960   -1.6715    2.0353 H   0  0  0  0  0  0
    4.4150    1.0393   -0.2826 H   0  0  0  0  0  0
    4.9907    1.0955   -4.5837 H   0  0  0  0  0  0
    4.1051   -1.2864   -4.6207 H   0  0  0  0  0  0
    7.1171    3.8227   -2.9412 H   0  0  0  0  0  0
    6.7385    2.5030   -4.0294 H   0  0  0  0  0  0
    7.4118    2.1635   -2.4402 H   0  0  0  0  0  0
    6.0468    2.7202   -0.3127 H   0  0  0  0  0  0
    4.3939    3.3246   -0.4662 H   0  0  0  0  0  0
    5.7476    4.3286   -0.9423 H   0  0  0  0  0  0
    4.6770    4.6791   -3.1726 H   0  0  0  0  0  0
    3.3374    3.6058   -2.7930 H   0  0  0  0  0  0
    4.3006    3.3408   -4.2410 H   0  0  0  0  0  0
   -4.2991    9.5160   -1.9828 H   0  0  0  0  0  0
   -1.5424    9.5734   -1.4045 H   0  0  0  0  0  0
    3.4602   -2.2764   -2.6328 H   0  0  0  0  0  0
  1  2  1  0  0  0
  1 47  1  0  0  0
  1 48  1  0  0  0
  1 49  1  0  0  0
  2 44  1  0  0  0
  2 21  1  0  0  0
  2  3  1  0  0  0
  3  4  1  0  0  0
  3 50  1  0  0  0
  3 51  1  0  0  0
  4  5  1  0  0  0
  4 52  1  0  0  0
  4 53  1  0  0  0
  5  6  1  0  0  0
  5 54  1  0  0  0
  5 55  1  0  0  0
  6  7  1  0  0  0
  6 56  1  0  0  0
  6 57  1  0  0  0
  7  8  1  0  0  0
  7 58  1  0  0  0
  7 59  1  0  0  0
  8  9  1  0  0  0
  8 60  1  0  0  0
  8 61  1  0  0  0
  9 10  1  0  0  0
  9 62  1  0  0  0
  9 63  1  0  0  0
 10 11  1  0  0  0
 11 16  1  0  0  0
 11 12  2  0  0  0
 12 13  1  0  0  0
 12 64  1  0  0  0
 13 14  2  0  0  0
 13 39  1  0  0  0
 14 15  1  0  0  0
 14 65  1  0  0  0
 15 16  2  0  0  0
 15 17  1  0  0  0
 16 66  1  0  0  0
 17 18  2  0  0  0
 17 19  1  0  0  0
 19 20  1  0  0  0
 19 67  1  0  0  0
 20 45  1  0  0  0
 20 21  1  0  0  0
 20 22  1  0  0  0
 21 68  1  0  0  0
 21 69  1  0  0  0
 22 46  1  0  0  0
 22 23  1  0  0  0
 22 24  1  0  0  0
 23 70  1  0  0  0
 24 25  1  0  0  0
 24 71  1  0  0  0
 24 72  1  0  0  0
 25 26  1  0  0  0
 25 73  1  0  0  0
 26 28  1  0  0  0
 26 27  1  0  0  0
 26 29  1  0  0  0
 27 28  1  0  0  0
 27 74  1  0  0  0
 27 75  1  0  0  0
 28 76  1  0  0  0
 28 77  1  0  0  0
 29 34  1  0  0  0
 29 30  2  0  0  0
 30 31  1  0  0  0
 30 78  1  0  0  0
 31 32  2  0  0  0
 31 35  1  0  0  0
 32 33  1  0  0  0
 32 79  1  0  0  0
 33 34  2  0  0  0
 33 80  1  0  0  0
 34 92  1  0  0  0
 35 36  1  0  0  0
 35 37  1  0  0  0
 35 38  1  0  0  0
 36 81  1  0  0  0
 36 82  1  0  0  0
 36 83  1  0  0  0
 37 84  1  0  0  0
 37 85  1  0  0  0
 37 86  1  0  0  0
 38 87  1  0  0  0
 38 88  1  0  0  0
 38 89  1  0  0  0
 39 43  1  0  0  0
 39 40  2  0  0  0
 40 41  1  0  0  0
 41 42  2  0  0  0
 41 90  1  0  0  0
 42 43  1  0  0  0
 42 91  1  0  0  0
M  CHG  1  34   1
M  END
> <s_m_source_file>
BACE_81.smi

> <i_m_source_file_index>
1

> <i_lp_mmshare_version>
42013

> <i_f3d_flags>
0

> <s_epik_input>
TzFbQ0gyXVtDSDJdW0NIMl1bQ0gyXVtDSDJdW0NIMl1bQ0gyXVtDQEBIXShbQ0gzXSlbQ0gyXVtDQEhdKFtOSF1DKD1PKWMoW2NIXTIpW2NIXWMoW2NIXWMxMiktYzNuW2NIXVtjSF1vMylbQ0BIXShbT0hdKVtDSDJdW05IXUM0KFtDSDJdW0NIMl00KWM1W2NIXWMoW2NIXVtjSF1uNSlDKFtDSDNdKShbQ0gzXSlbQ0gzXQ==

> <s_epik_cmdline>
J2VwaWtfcHl0aG9uJywgJy1waCcsICc3LjAnLCAnLXRuJywgJzgnLCAnLW1hJywgJzIwMCcsICctaW1hZScsICc8aW5maWxlLm1hZT4nLCAnLW9tYWUnLCAnPG91dGZpbGUubWFlPic=

> <r_epik_Ionization_Penalty>
2.37688

> <r_epik_Ionization_Penalty_Charging>
2.37685

> <r_epik_Ionization_Penalty_Neutral>
3.24149e-05

> <r_epik_State_Penalty>
1.51721

> <r_epik_Charging_Adjusted_Penalty>
3.89406

> <i_epik_Tot_Q>
1

> <i_epik_Tot_abs_Q>
1

> <s_lp_Force_Field>
OPLS_2005

> <r_lp_Energy>
60.7398

> <b_lp_Chiralities_Consistent>
1

> <s_lp_Variant>
BACE_81.smi:1-2

$$$$
BACE_81.smi:1
                    3D
 Structure written by MMmdl.
 92 96  0  0  1  0            999 V2000
    0.8841    2.1354   -3.3743 C   0  0  0  0  0  0
   -0.3109    1.9049   -2.4335 C   0  0  2  0  0  0
   -1.5776    2.5523   -3.0441 C   0  0  0  0  0  0
   -2.9007    2.3292   -2.2898 C   0  0  0  0  0  0
   -3.3722    0.8641   -2.2425 C   0  0  0  0  0  0
   -4.5463    0.5855   -1.2832 C   0  0  0  0  0  0
   -5.9212    1.1469   -1.7079 C   0  0  0  0  0  0
   -6.2410    2.5991   -1.2932 C   0  0  0  0  0  0
   -6.5633    2.8015    0.2043 C   0  0  0  0  0  0
   -5.4406    2.5993    1.0568 O   0  0  0  0  0  0
   -4.3853    3.4851    1.0045 C   0  0  0  0  0  0
   -4.4520    4.7787    0.4308 C   0  0  0  0  0  0
   -3.3094    5.6069    0.3835 C   0  0  0  0  0  0
   -2.0897    5.1385    0.9160 C   0  0  0  0  0  0
   -2.0079    3.8496    1.4788 C   0  0  0  0  0  0
   -3.1633    3.0442    1.5473 C   0  0  0  0  0  0
   -0.7013    3.3563    2.0219 C   0  0  0  0  0  0
   -0.1750    3.9338    2.9702 O   0  0  0  0  0  0
   -0.1281    2.2870    1.4387 N   0  0  0  0  0  0
   -0.5071    1.5975    0.1988 C   0  0  1  0  0  0
    0.0313    2.4190   -1.0085 C   0  0  0  0  0  0
    0.0099    0.1340    0.2518 C   0  0  2  0  0  0
   -0.7445   -0.5804    1.2112 O   0  0  0  0  0  0
    1.5103   -0.0138    0.5674 C   0  0  0  0  0  0
    1.9986   -1.3660    0.2220 N   0  3  0  0  0  0
    3.4569   -1.4551   -0.0033 C   0  0  0  0  0  0
    4.0464   -2.7735    0.4381 C   0  0  0  0  0  0
    4.2747   -1.5268    1.2664 C   0  0  0  0  0  0
    3.9202   -0.7597   -1.2490 C   0  0  0  0  0  0
    4.5552    0.4994   -1.2035 C   0  0  0  0  0  0
    4.8915    1.1503   -2.4153 C   0  0  0  0  0  0
    4.5748    0.4787   -3.6191 C   0  0  0  0  0  0
    3.9488   -0.7808   -3.5608 C   0  0  0  0  0  0
    3.6165   -1.3889   -2.4040 N   0  0  0  0  0  0
    5.5463    2.5420   -2.4578 C   0  0  0  0  0  0
    6.8541    2.4828   -3.2744 C   0  0  0  0  0  0
    5.8953    3.0824   -1.0530 C   0  0  0  0  0  0
    4.5745    3.5395   -3.1197 C   0  0  0  0  0  0
   -3.3891    6.9295   -0.2299 C   0  0  0  0  0  0
   -4.4498    7.5328   -0.7678 N   0  0  0  0  0  0
   -3.9844    8.7597   -1.2168 C   0  0  0  0  0  0
   -2.6485    8.8386   -0.9256 C   0  0  0  0  0  0
   -2.2584    7.6862   -0.2999 O   0  0  0  0  0  0
   -0.4567    0.8290   -2.4219 H   0  0  0  0  0  0
   -1.5892    1.5410    0.1195 H   0  0  0  0  0  0
   -0.1964   -0.3565   -0.6970 H   0  0  0  0  0  0
    1.1209    3.1962   -3.4641 H   0  0  0  0  0  0
    0.6797    1.7540   -4.3753 H   0  0  0  0  0  0
    1.7762    1.6248   -3.0102 H   0  0  0  0  0  0
   -1.4131    3.6269   -3.1342 H   0  0  0  0  0  0
   -1.7046    2.1910   -4.0656 H   0  0  0  0  0  0
   -2.8252    2.7427   -1.2873 H   0  0  0  0  0  0
   -3.6619    2.9205   -2.7963 H   0  0  0  0  0  0
   -3.6251    0.5271   -3.2483 H   0  0  0  0  0  0
   -2.5458    0.2329   -1.9190 H   0  0  0  0  0  0
   -4.6516   -0.4986   -1.2293 H   0  0  0  0  0  0
   -4.2844    0.8864   -0.2715 H   0  0  0  0  0  0
   -6.0161    1.0559   -2.7905 H   0  0  0  0  0  0
   -6.7001    0.5031   -1.2977 H   0  0  0  0  0  0
   -5.4598    3.2813   -1.6163 H   0  0  0  0  0  0
   -7.1256    2.9049   -1.8523 H   0  0  0  0  0  0
   -7.0066    3.7815    0.3812 H   0  0  0  0  0  0
   -7.3308    2.0871    0.5026 H   0  0  0  0  0  0
   -5.3746    5.1495    0.0124 H   0  0  0  0  0  0
   -1.2053    5.7582    0.8790 H   0  0  0  0  0  0
   -3.1080    2.0597    1.9898 H   0  0  0  0  0  0
    0.7306    1.9684    1.8629 H   0  0  0  0  0  0
    1.1134    2.4996   -0.9065 H   0  0  0  0  0  0
   -0.3150    3.4503   -0.9296 H   0  0  0  0  0  0
   -1.6620   -0.4950    0.9988 H   0  0  0  0  0  0
    2.0642    0.7166   -0.0175 H   0  0  0  0  0  0
    1.7279    0.2005    1.6145 H   0  0  0  0  0  0
    1.7296   -2.0055    0.9559 H   0  0  0  0  0  0
    3.3827   -3.5274    0.8576 H   0  0  0  0  0  0
    4.9002   -3.1597   -0.1153 H   0  0  0  0  0  0
    5.2781   -1.1057    1.2551 H   0  0  0  0  0  0
    3.7575   -1.4727    2.2225 H   0  0  0  0  0  0
    4.7468    0.9493   -0.2418 H   0  0  0  0  0  0
    4.7961    0.9187   -4.5798 H   0  0  0  0  0  0
    3.6952   -1.3069   -4.4692 H   0  0  0  0  0  0
    7.3496    3.4540   -3.2990 H   0  0  0  0  0  0
    6.6813    2.1901   -4.3099 H   0  0  0  0  0  0
    7.5565    1.7682   -2.8435 H   0  0  0  0  0  0
    6.5864    2.4214   -0.5282 H   0  0  0  0  0  0
    5.0059    3.2051   -0.4337 H   0  0  0  0  0  0
    6.3739    4.0605   -1.1150 H   0  0  0  0  0  0
    5.0010    4.5425   -3.1590 H   0  0  0  0  0  0
    3.6374    3.6039   -2.5652 H   0  0  0  0  0  0
    4.3300    3.2534   -4.1430 H   0  0  0  0  0  0
   -4.6337    9.4721   -1.7041 H   0  0  0  0  0  0
   -1.8873    9.5880   -1.0847 H   0  0  0  0  0  0
    1.5478   -1.6531   -0.6353 H   0  0  0  0  0  0
  1  2  1  0  0  0
  1 47  1  0  0  0
  1 48  1  0  0  0
  1 49  1  0  0  0
  2 44  1  0  0  0
  2 21  1  0  0  0
  2  3  1  0  0  0
  3  4  1  0  0  0
  3 50  1  0  0  0
  3 51  1  0  0  0
  4  5  1  0  0  0
  4 52  1  0  0  0
  4 53  1  0  0  0
  5  6  1  0  0  0
  5 54  1  0  0  0
  5 55  1  0  0  0
  6  7  1  0  0  0
  6 56  1  0  0  0
  6 57  1  0  0  0
  7  8  1  0  0  0
  7 58  1  0  0  0
  7 59  1  0  0  0
  8  9  1  0  0  0
  8 60  1  0  0  0
  8 61  1  0  0  0
  9 10  1  0  0  0
  9 62  1  0  0  0
  9 63  1  0  0  0
 10 11  1  0  0  0
 11 16  1  0  0  0
 11 12  2  0  0  0
 12 13  1  0  0  0
 12 64  1  0  0  0
 13 14  2  0  0  0
 13 39  1  0  0  0
 14 15  1  0  0  0
 14 65  1  0  0  0
 15 16  2  0  0  0
 15 17  1  0  0  0
 16 66  1  0  0  0
 17 18  2  0  0  0
 17 19  1  0  0  0
 19 20  1  0  0  0
 19 67  1  0  0  0
 20 45  1  0  0  0
 20 21  1  0  0  0
 20 22  1  0  0  0
 21 68  1  0  0  0
 21 69  1  0  0  0
 22 46  1  0  0  0
 22 23  1  0  0  0
 22 24  1  0  0  0
 23 70  1  0  0  0
 24 25  1  0  0  0
 24 71  1  0  0  0
 24 72  1  0  0  0
 25 26  1  0  0  0
 25 73  1  0  0  0
 25 92  1  0  0  0
 26 28  1  0  0  0
 26 27  1  0  0  0
 26 29  1  0  0  0
 27 28  1  0  0  0
 27 74  1  0  0  0
 27 75  1  0  0  0
 28 76  1  0  0  0
 28 77  1  0  0  0
 29 34  1  0  0  0
 29 30  2  0  0  0
 30 31  1  0  0  0
 30 78  1  0  0  0
 31 32  2  0  0  0
 31 35  1  0  0  0
 32 33  1  0  0  0
 32 79  1  0  0  0
 33 34  2  0  0  0
 33 80  1  0  0  0
 35 36  1  0  0  0
 35 37  1  0  0  0
 35 38  1  0  0  0
 36 81  1  0  0  0
 36 82  1  0  0  0
 36 83  1  0  0  0
 37 84  1  0  0  0
 37 85  1  0  0  0
 37 86  1  0  0  0
 38 87  1  0  0  0
 38 88  1  0  0  0
 38 89  1  0  0  0
 39 43  1  0  0  0
 39 40  2  0  0  0
 40 41  1  0  0  0
 41 42  2  0  0  0
 41 90  1  0  0  0
 42 43  1  0  0  0
 42 91  1  0  0  0
M  CHG  1  25   1
M  END
> <s_m_source_file>
BACE_81.smi

> <i_m_source_file_index>
1

> <i_lp_mmshare_version>
42013

> <i_f3d_flags>
0

> <s_epik_input>
TzFbQ0gyXVtDSDJdW0NIMl1bQ0gyXVtDSDJdW0NIMl1bQ0gyXVtDQEBIXShbQ0gzXSlbQ0gyXVtDQEhdKFtOSF1DKD1PKWMoW2NIXTIpW2NIXWMoW2NIXWMxMiktYzNuW2NIXVtjSF1vMylbQ0BIXShbT0hdKVtDSDJdW05IXUM0KFtDSDJdW0NIMl00KWM1W2NIXWMoW2NIXVtjSF1uNSlDKFtDSDNdKShbQ0gzXSlbQ0gzXQ==

> <s_epik_cmdline>
J2VwaWtfcHl0aG9uJywgJy1waCcsICc3LjAnLCAnLXRuJywgJzgnLCAnLW1hJywgJzIwMCcsICctaW1hZScsICc8aW5maWxlLm1hZT4nLCAnLW9tYWUnLCAnPG91dGZpbGUubWFlPic=

> <r_lp_tautomer_probability>
1

> <r_epik_Ionization_Penalty>
0.725579

> <r_epik_Ionization_Penalty_Charging>
0.724168

> <r_epik_Ionization_Penalty_Neutral>
0.00141072

> <r_epik_State_Penalty>
1.72673

> <r_epik_Charging_Adjusted_Penalty>
2.45089

> <i_epik_Tot_Q>
1

> <i_epik_Tot_abs_Q>
1

> <s_lp_Force_Field>
OPLS_2005

> <r_lp_Energy>
46.0364

> <b_lp_Chiralities_Consistent>
1

> <s_lp_Variant>
BACE_81.smi:1-3

$$$$
