BACE_145.smi:1
                    3D
 Structure written by MMmdl.
 89 92  0  0  1  0            999 V2000
   -4.0552    4.5212    0.3405 C   0  0  0  0  0  0
   -5.0591    4.5318   -0.8202 C   0  0  0  0  0  0
   -4.8634    3.4014   -1.8471 C   0  0  0  0  0  0
   -5.2593    2.0927   -1.3393 N   0  0  0  0  0  0
   -4.3820    1.2444   -0.6447 C   0  0  0  0  0  0
   -4.9363    0.1274    0.0125 C   0  0  0  0  0  0
   -4.1219   -0.7543    0.7504 C   0  0  0  0  0  0
   -4.7442   -1.9537    1.4422 C   0  0  0  0  0  0
   -4.0078   -2.3653    2.5834 O   0  0  0  0  0  0
   -4.5717   -3.5020    3.2135 C   0  0  0  0  0  0
   -2.7319   -0.5287    0.8148 C   0  0  0  0  0  0
   -2.1532    0.5752    0.1481 C   0  0  0  0  0  0
   -2.9852    1.4591   -0.5738 C   0  0  0  0  0  0
   -0.6795    0.8489    0.2482 C   0  0  0  0  0  0
   -0.2466    2.0001    0.1834 O   0  0  0  0  0  0
    0.1018   -0.2370    0.3823 N   0  0  0  0  0  0
    1.5514   -0.2423    0.5933 C   0  0  1  0  0  0
    1.9031   -0.5815    2.0642 C   0  0  0  0  0  0
    1.1512    0.2673    3.0772 C   0  0  0  0  0  0
    1.4685    1.6343    3.2214 C   0  0  0  0  0  0
    0.7524    2.4496    4.1336 C   0  0  0  0  0  0
   -0.2744    1.8665    4.9037 C   0  0  0  0  0  0
   -0.5916    0.5018    4.7667 C   0  0  0  0  0  0
    0.1191   -0.2978    3.8536 C   0  0  0  0  0  0
    0.9905    3.7943    4.3206 O   0  0  0  0  0  0
    1.9694    4.4186    3.5027 C   0  0  0  0  0  0
    2.2363   -1.1464   -0.4588 C   0  0  2  0  0  0
    1.9536   -2.5053   -0.1805 O   0  0  0  0  0  0
    3.7658   -0.9735   -0.4655 C   0  0  0  0  0  0
    4.3471   -1.4446   -1.7217 N   0  0  0  0  0  0
    5.8036   -1.3255   -1.7744 C   0  0  0  0  0  0
    6.4216    0.0564   -1.8140 C   0  0  0  0  0  0
    6.4010   -0.8000   -3.0595 C   0  0  0  0  0  0
    6.4881   -2.4554   -1.0625 C   0  0  0  0  0  0
    6.6293   -3.7095   -1.6936 C   0  0  0  0  0  0
    7.2649   -4.7848   -1.0349 C   0  0  0  0  0  0
    7.7585   -4.5990    0.2738 C   0  0  0  0  0  0
    7.6176   -3.3533    0.9132 C   0  0  0  0  0  0
    6.9848   -2.2869    0.2474 C   0  0  0  0  0  0
    7.4194   -6.1340   -1.7247 C   0  0  0  0  0  0
    8.2784   -6.0251   -2.9945 C   0  0  0  0  0  0
    6.0559   -6.7807   -2.0150 C   0  0  0  0  0  0
    1.9179    0.7689    0.4091 H   0  0  0  0  0  0
    1.8411   -0.8987   -1.4456 H   0  0  0  0  0  0
   -4.2037    5.3865    0.9864 H   0  0  0  0  0  0
   -3.0284    4.5529   -0.0247 H   0  0  0  0  0  0
   -4.1676    3.6310    0.9591 H   0  0  0  0  0  0
   -6.0762    4.5045   -0.4275 H   0  0  0  0  0  0
   -4.9647    5.4856   -1.3400 H   0  0  0  0  0  0
   -5.5056    3.6044   -2.7043 H   0  0  0  0  0  0
   -3.8499    3.3990   -2.2449 H   0  0  0  0  0  0
   -6.2474    1.8855   -1.3116 H   0  0  0  0  0  0
   -6.0008   -0.0511   -0.0405 H   0  0  0  0  0  0
   -5.7648   -1.7057    1.7388 H   0  0  0  0  0  0
   -4.8031   -2.7707    0.7216 H   0  0  0  0  0  0
   -3.9714   -3.7750    4.0813 H   0  0  0  0  0  0
   -4.5938   -4.3573    2.5370 H   0  0  0  0  0  0
   -5.5873   -3.3002    3.5566 H   0  0  0  0  0  0
   -2.1127   -1.2056    1.3858 H   0  0  0  0  0  0
   -2.5320    2.3051   -1.0663 H   0  0  0  0  0  0
   -0.3566   -1.1361    0.4004 H   0  0  0  0  0  0
    1.6922   -1.6311    2.2714 H   0  0  0  0  0  0
    2.9722   -0.4504    2.2340 H   0  0  0  0  0  0
    2.2590    2.0402    2.6088 H   0  0  0  0  0  0
   -0.8291    2.4740    5.6037 H   0  0  0  0  0  0
   -1.3845    0.0699    5.3593 H   0  0  0  0  0  0
   -0.1374   -1.3416    3.7459 H   0  0  0  0  0  0
    2.0179    5.4798    3.7462 H   0  0  0  0  0  0
    1.7175    4.3347    2.4444 H   0  0  0  0  0  0
    2.9604    3.9958    3.6734 H   0  0  0  0  0  0
    1.0198   -2.6357   -0.2411 H   0  0  0  0  0  0
    4.0075    0.0820   -0.3384 H   0  0  0  0  0  0
    4.2067   -1.4938    0.3858 H   0  0  0  0  0  0
    4.1029   -2.4256   -1.8161 H   0  0  0  0  0  0
    5.7621    0.9221   -1.8111 H   0  0  0  0  0  0
    7.3837    0.2027   -1.3272 H   0  0  0  0  0  0
    7.3499   -1.2173   -3.3909 H   0  0  0  0  0  0
    5.7244   -0.4910   -3.8541 H   0  0  0  0  0  0
    6.2455   -3.8433   -2.6945 H   0  0  0  0  0  0
    8.2465   -5.4100    0.7945 H   0  0  0  0  0  0
    7.9950   -3.2154    1.9156 H   0  0  0  0  0  0
    6.8782   -1.3352    0.7470 H   0  0  0  0  0  0
    7.9480   -6.7971   -1.0383 H   0  0  0  0  0  0
    9.2599   -5.6074   -2.7677 H   0  0  0  0  0  0
    7.8107   -5.3875   -3.7451 H   0  0  0  0  0  0
    8.4344   -7.0050   -3.4462 H   0  0  0  0  0  0
    5.4754   -6.8971   -1.0993 H   0  0  0  0  0  0
    6.1778   -7.7709   -2.4545 H   0  0  0  0  0  0
    5.4656   -6.1825   -2.7096 H   0  0  0  0  0  0
  1  2  1  0  0  0
  1 45  1  0  0  0
  1 46  1  0  0  0
  1 47  1  0  0  0
  2  3  1  0  0  0
  2 48  1  0  0  0
  2 49  1  0  0  0
  3  4  1  0  0  0
  3 50  1  0  0  0
  3 51  1  0  0  0
  4  5  1  0  0  0
  4 52  1  0  0  0
  5 13  1  0  0  0
  5  6  2  0  0  0
  6  7  1  0  0  0
  6 53  1  0  0  0
  7  8  1  0  0  0
  7 11  2  0  0  0
  8  9  1  0  0  0
  8 54  1  0  0  0
  8 55  1  0  0  0
  9 10  1  0  0  0
 10 56  1  0  0  0
 10 57  1  0  0  0
 10 58  1  0  0  0
 11 12  1  0  0  0
 11 59  1  0  0  0
 12 13  2  0  0  0
 12 14  1  0  0  0
 13 60  1  0  0  0
 14 15  2  0  0  0
 14 16  1  0  0  0
 16 17  1  0  0  0
 16 61  1  0  0  0
 17 43  1  0  0  0
 17 18  1  0  0  0
 17 27  1  0  0  0
 18 19  1  0  0  0
 18 62  1  0  0  0
 18 63  1  0  0  0
 19 24  1  0  0  0
 19 20  2  0  0  0
 20 21  1  0  0  0
 20 64  1  0  0  0
 21 22  2  0  0  0
 21 25  1  0  0  0
 22 23  1  0  0  0
 22 65  1  0  0  0
 23 24  2  0  0  0
 23 66  1  0  0  0
 24 67  1  0  0  0
 25 26  1  0  0  0
 26 68  1  0  0  0
 26 69  1  0  0  0
 26 70  1  0  0  0
 27 44  1  0  0  0
 27 28  1  0  0  0
 27 29  1  0  0  0
 28 71  1  0  0  0
 29 30  1  0  0  0
 29 72  1  0  0  0
 29 73  1  0  0  0
 30 31  1  0  0  0
 30 74  1  0  0  0
 31 33  1  0  0  0
 31 32  1  0  0  0
 31 34  1  0  0  0
 32 33  1  0  0  0
 32 75  1  0  0  0
 32 76  1  0  0  0
 33 77  1  0  0  0
 33 78  1  0  0  0
 34 39  1  0  0  0
 34 35  2  0  0  0
 35 36  1  0  0  0
 35 79  1  0  0  0
 36 37  2  0  0  0
 36 40  1  0  0  0
 37 38  1  0  0  0
 37 80  1  0  0  0
 38 39  2  0  0  0
 38 81  1  0  0  0
 39 82  1  0  0  0
 40 41  1  0  0  0
 40 42  1  0  0  0
 40 83  1  0  0  0
 41 84  1  0  0  0
 41 85  1  0  0  0
 41 86  1  0  0  0
 42 87  1  0  0  0
 42 88  1  0  0  0
 42 89  1  0  0  0
M  END
> <s_m_source_file>
BACE_145.smi

> <i_m_source_file_index>
1

> <i_lp_mmshare_version>
42013

> <i_f3d_flags>
0

> <s_epik_input>
W0NIM11bQ0gyXVtDSDJdW05IXWMxW2NIXWMoW0NIMl1PW0NIM10pW2NIXWMoW2NIXTEpQyg9TylbTkhdW0NAQEhdKFtDSDJdYzJbY0hdYyhPW0NIM10pW2NIXVtjSF1bY0hdMilbQ0BIXShbT0hdKVtDSDJdW05IXUMzKFtDSDJdW0NIMl0zKWM0W2NIXWMoW0NIXShbQ0gzXSlbQ0gzXSlbY0hdW2NIXVtjSF00

> <s_epik_cmdline>
J2VwaWtfcHl0aG9uJywgJy1waCcsICc3LjAnLCAnLXRuJywgJzgnLCAnLW1hJywgJzIwMCcsICctaW1hZScsICc8aW5maWxlLm1hZT4nLCAnLW9tYWUnLCAnPG91dGZpbGUubWFlPic=

> <r_lp_tautomer_probability>
1

> <r_epik_Ionization_Penalty>
0.323524

> <r_epik_Ionization_Penalty_Charging>
0

> <r_epik_Ionization_Penalty_Neutral>
0.323524

> <r_epik_State_Penalty>
0.317604

> <r_epik_Charging_Adjusted_Penalty>
0.317604

> <i_epik_Tot_Q>
0

> <i_epik_Tot_abs_Q>
0

> <s_lp_Force_Field>
OPLS_2005

> <r_lp_Energy>
51.3819

> <b_lp_Chiralities_Consistent>
1

> <s_lp_Variant>
BACE_145.smi:1-1

$$$$
BACE_145.smi:1
                    3D
 Structure written by MMmdl.
 90 93  0  0  1  0            999 V2000
   -6.6281    4.7842   -2.3892 C   0  0  0  0  0  0
   -6.8408    4.3047   -0.9471 C   0  0  0  0  0  0
   -6.3275    2.8793   -0.6985 C   0  0  0  0  0  0
   -4.8756    2.8047   -0.7658 N   0  0  0  0  0  0
   -4.2041    1.5812   -0.6331 C   0  0  0  0  0  0
   -4.8704    0.3719   -0.3268 C   0  0  0  0  0  0
   -4.1479   -0.8332   -0.2118 C   0  0  0  0  0  0
   -4.8751   -2.1212    0.1274 C   0  0  0  0  0  0
   -4.2699   -3.2550   -0.4746 O   0  0  0  0  0  0
   -4.9485   -4.4601   -0.1668 C   0  0  0  0  0  0
   -2.7481   -0.8277   -0.3802 C   0  0  0  0  0  0
   -2.0678    0.3748   -0.6754 C   0  0  0  0  0  0
   -2.8060    1.5700   -0.8118 C   0  0  0  0  0  0
   -0.5805    0.3895   -0.8696 C   0  0  0  0  0  0
   -0.0531    1.1599   -1.6715 O   0  0  0  0  0  0
    0.1057   -0.4354   -0.0613 N   0  0  0  0  0  0
    1.5634   -0.5303    0.0439 C   0  0  1  0  0  0
    2.0208    0.0272    1.4142 C   0  0  0  0  0  0
    1.4689    1.4119    1.7160 C   0  0  0  0  0  0
    0.3370    1.5632    2.5448 C   0  0  0  0  0  0
   -0.2175    2.8357    2.7913 C   0  0  0  0  0  0
    0.3922    3.9721    2.2028 C   0  0  0  0  0  0
    1.5281    3.8264    1.3832 C   0  0  0  0  0  0
    2.0652    2.5497    1.1375 C   0  0  0  0  0  0
   -1.3354    2.8851    3.5962 O   0  0  0  0  0  0
   -1.9462    4.1485    3.8138 C   0  0  0  0  0  0
    2.0167   -1.9907   -0.1960 C   0  0  2  0  0  0
    3.4307   -2.0386   -0.1756 O   0  0  0  0  0  0
    1.5580   -2.5550   -1.5567 C   0  0  0  0  0  0
    1.8882   -3.9899   -1.6860 N   0  3  0  0  0  0
    1.4087   -4.6275   -2.9312 C   0  0  0  0  0  0
   -0.0223   -5.1093   -2.8589 C   0  0  0  0  0  0
    1.1199   -6.0994   -2.7562 C   0  0  0  0  0  0
    2.0338   -4.0944   -4.1861 C   0  0  0  0  0  0
    3.3099   -4.5427   -4.5876 C   0  0  0  0  0  0
    3.9195   -4.0374   -5.7561 C   0  0  0  0  0  0
    3.2377   -3.0727   -6.5295 C   0  0  0  0  0  0
    1.9625   -2.6240   -6.1388 C   0  0  0  0  0  0
    1.3634   -3.1329   -4.9714 C   0  0  0  0  0  0
    5.3030   -4.5267   -6.1664 C   0  0  0  0  0  0
    6.3464   -3.4026   -6.0730 C   0  0  0  0  0  0
    5.2908   -5.1773   -7.5589 C   0  0  0  0  0  0
    2.0193    0.0895   -0.7307 H   0  0  0  0  0  0
    1.6364   -2.6227    0.6080 H   0  0  0  0  0  0
   -7.0418    5.7829   -2.5299 H   0  0  0  0  0  0
   -7.1171    4.1186   -3.1010 H   0  0  0  0  0  0
   -5.5686    4.8267   -2.6431 H   0  0  0  0  0  0
   -6.3672    4.9984   -0.2514 H   0  0  0  0  0  0
   -7.9081    4.3347   -0.7255 H   0  0  0  0  0  0
   -6.6464    2.5508    0.2914 H   0  0  0  0  0  0
   -6.7668    2.1936   -1.4239 H   0  0  0  0  0  0
   -4.3594    3.6328   -1.0265 H   0  0  0  0  0  0
   -5.9400    0.3515   -0.1793 H   0  0  0  0  0  0
   -4.8820   -2.2357    1.2124 H   0  0  0  0  0  0
   -5.9136   -2.0453   -0.1993 H   0  0  0  0  0  0
   -4.4407   -5.2985   -0.6433 H   0  0  0  0  0  0
   -5.9763   -4.4375   -0.5317 H   0  0  0  0  0  0
   -4.9627   -4.6419    0.9088 H   0  0  0  0  0  0
   -2.1997   -1.7536   -0.2834 H   0  0  0  0  0  0
   -2.2943    2.4936   -1.0436 H   0  0  0  0  0  0
   -0.4297   -1.0047    0.5781 H   0  0  0  0  0  0
    1.7147   -0.6525    2.2107 H   0  0  0  0  0  0
    3.1093    0.0743    1.4603 H   0  0  0  0  0  0
   -0.1275    0.6915    2.9822 H   0  0  0  0  0  0
    0.0065    4.9675    2.3635 H   0  0  0  0  0  0
    1.9847    4.6971    0.9363 H   0  0  0  0  0  0
    2.9279    2.4450    0.4958 H   0  0  0  0  0  0
   -2.8238    4.0195    4.4472 H   0  0  0  0  0  0
   -2.2796    4.5967    2.8768 H   0  0  0  0  0  0
   -1.2700    4.8360    4.3237 H   0  0  0  0  0  0
    3.7336   -1.6905    0.6497 H   0  0  0  0  0  0
    0.4779   -2.4574   -1.6692 H   0  0  0  0  0  0
    2.0138   -1.9877   -2.3694 H   0  0  0  0  0  0
    2.8926   -4.0887   -1.6394 H   0  0  0  0  0  0
   -0.5906   -4.9194   -1.9501 H   0  0  0  0  0  0
   -0.6050   -5.1220   -3.7779 H   0  0  0  0  0  0
    1.2781   -6.7561   -3.6096 H   0  0  0  0  0  0
    1.2898   -6.5532   -1.7814 H   0  0  0  0  0  0
    3.8256   -5.2785   -3.9873 H   0  0  0  0  0  0
    3.6898   -2.6716   -7.4247 H   0  0  0  0  0  0
    1.4444   -1.8866   -6.7340 H   0  0  0  0  0  0
    0.3866   -2.7780   -4.6766 H   0  0  0  0  0  0
    5.6031   -5.3007   -5.4585 H   0  0  0  0  0  0
    6.3860   -2.9889   -5.0648 H   0  0  0  0  0  0
    6.1199   -2.5860   -6.7593 H   0  0  0  0  0  0
    7.3434   -3.7716   -6.3157 H   0  0  0  0  0  0
    4.5800   -6.0031   -7.5990 H   0  0  0  0  0  0
    6.2731   -5.5779   -7.8109 H   0  0  0  0  0  0
    5.0179   -4.4641   -8.3372 H   0  0  0  0  0  0
    1.4809   -4.4803   -0.9030 H   0  0  0  0  0  0
  1  2  1  0  0  0
  1 45  1  0  0  0
  1 46  1  0  0  0
  1 47  1  0  0  0
  2  3  1  0  0  0
  2 48  1  0  0  0
  2 49  1  0  0  0
  3  4  1  0  0  0
  3 50  1  0  0  0
  3 51  1  0  0  0
  4  5  1  0  0  0
  4 52  1  0  0  0
  5 13  1  0  0  0
  5  6  2  0  0  0
  6  7  1  0  0  0
  6 53  1  0  0  0
  7  8  1  0  0  0
  7 11  2  0  0  0
  8  9  1  0  0  0
  8 54  1  0  0  0
  8 55  1  0  0  0
  9 10  1  0  0  0
 10 56  1  0  0  0
 10 57  1  0  0  0
 10 58  1  0  0  0
 11 12  1  0  0  0
 11 59  1  0  0  0
 12 13  2  0  0  0
 12 14  1  0  0  0
 13 60  1  0  0  0
 14 15  2  0  0  0
 14 16  1  0  0  0
 16 17  1  0  0  0
 16 61  1  0  0  0
 17 43  1  0  0  0
 17 18  1  0  0  0
 17 27  1  0  0  0
 18 19  1  0  0  0
 18 62  1  0  0  0
 18 63  1  0  0  0
 19 24  1  0  0  0
 19 20  2  0  0  0
 20 21  1  0  0  0
 20 64  1  0  0  0
 21 22  2  0  0  0
 21 25  1  0  0  0
 22 23  1  0  0  0
 22 65  1  0  0  0
 23 24  2  0  0  0
 23 66  1  0  0  0
 24 67  1  0  0  0
 25 26  1  0  0  0
 26 68  1  0  0  0
 26 69  1  0  0  0
 26 70  1  0  0  0
 27 44  1  0  0  0
 27 28  1  0  0  0
 27 29  1  0  0  0
 28 71  1  0  0  0
 29 30  1  0  0  0
 29 72  1  0  0  0
 29 73  1  0  0  0
 30 31  1  0  0  0
 30 74  1  0  0  0
 30 90  1  0  0  0
 31 33  1  0  0  0
 31 32  1  0  0  0
 31 34  1  0  0  0
 32 33  1  0  0  0
 32 75  1  0  0  0
 32 76  1  0  0  0
 33 77  1  0  0  0
 33 78  1  0  0  0
 34 39  1  0  0  0
 34 35  2  0  0  0
 35 36  1  0  0  0
 35 79  1  0  0  0
 36 37  2  0  0  0
 36 40  1  0  0  0
 37 38  1  0  0  0
 37 80  1  0  0  0
 38 39  2  0  0  0
 38 81  1  0  0  0
 39 82  1  0  0  0
 40 41  1  0  0  0
 40 42  1  0  0  0
 40 83  1  0  0  0
 41 84  1  0  0  0
 41 85  1  0  0  0
 41 86  1  0  0  0
 42 87  1  0  0  0
 42 88  1  0  0  0
 42 89  1  0  0  0
M  CHG  1  30   1
M  END
> <s_m_source_file>
BACE_145.smi

> <i_m_source_file_index>
1

> <i_lp_mmshare_version>
42013

> <i_f3d_flags>
0

> <s_epik_input>
W0NIM11bQ0gyXVtDSDJdW05IXWMxW2NIXWMoW0NIMl1PW0NIM10pW2NIXWMoW2NIXTEpQyg9TylbTkhdW0NAQEhdKFtDSDJdYzJbY0hdYyhPW0NIM10pW2NIXVtjSF1bY0hdMilbQ0BIXShbT0hdKVtDSDJdW05IXUMzKFtDSDJdW0NIMl0zKWM0W2NIXWMoW0NIXShbQ0gzXSlbQ0gzXSlbY0hdW2NIXVtjSF00

> <s_epik_cmdline>
J2VwaWtfcHl0aG9uJywgJy1waCcsICc3LjAnLCAnLXRuJywgJzgnLCAnLW1hJywgJzIwMCcsICctaW1hZScsICc8aW5maWxlLm1hZT4nLCAnLW9tYWUnLCAnPG91dGZpbGUubWFlPic=

> <r_lp_tautomer_probability>
1

> <r_epik_Ionization_Penalty>
0.51422

> <r_epik_Ionization_Penalty_Charging>
0.513699

> <r_epik_Ionization_Penalty_Neutral>
0.000520821

> <r_epik_State_Penalty>
0.521152

> <r_epik_Charging_Adjusted_Penalty>
1.03485

> <i_epik_Tot_Q>
1

> <i_epik_Tot_abs_Q>
1

> <s_lp_Force_Field>
OPLS_2005

> <r_lp_Energy>
38.1654

> <b_lp_Chiralities_Consistent>
1

> <s_lp_Variant>
BACE_145.smi:1-2

$$$$
