BACE_68.smi:1
                    3D
 Structure written by MMmdl.
 97100  0  0  1  0            999 V2000
    0.2007   -2.9921   -2.7255 C   0  0  0  0  0  0
   -0.2169   -2.4654   -1.3426 C   0  0  2  0  0  0
   -1.4801   -3.2109   -0.8562 C   0  0  0  0  0  0
   -1.8886   -2.8877    0.5890 C   0  0  0  0  0  0
   -3.0275   -3.7818    1.1076 C   0  0  0  0  0  0
   -3.5008   -3.3919    2.5174 C   0  0  0  0  0  0
   -2.5233   -3.7990    3.6383 C   0  0  0  0  0  0
   -2.8393   -3.1556    5.0028 C   0  0  0  0  0  0
   -2.1065   -1.8240    5.2465 C   0  0  0  0  0  0
   -2.5328   -0.7849    4.3213 N   0  0  0  0  0  0
   -1.5876    0.1786    3.9503 C   0  0  0  0  0  0
   -0.6674    0.7211    4.8747 C   0  0  0  0  0  0
    0.2702    1.6931    4.4648 C   0  0  0  0  0  0
    0.2658    2.1392    3.1243 C   0  0  0  0  0  0
   -0.6336    1.5871    2.1892 C   0  0  0  0  0  0
   -1.5689    0.6194    2.6127 C   0  0  0  0  0  0
   -0.6342    2.0820    0.7735 C   0  0  0  0  0  0
   -0.8567    3.2688    0.5443 O   0  0  0  0  0  0
   -0.3893    1.2088   -0.2212 N   0  0  0  0  0  0
    0.1352   -0.1598   -0.1414 C   0  0  1  0  0  0
   -0.3898   -0.9242   -1.3817 C   0  0  0  0  0  0
    1.6914   -0.1592   -0.0774 C   0  0  2  0  0  0
    2.0950   -0.0515    1.2711 O   0  0  0  0  0  0
    2.3728    0.9451   -0.9078 C   0  0  0  0  0  0
    3.7362    0.5677   -1.2784 N   0  0  0  0  0  0
    4.3051    1.4074   -2.3312 C   0  0  0  0  0  0
    5.6843    1.9779   -2.0936 C   0  0  0  0  0  0
    4.4798    2.8904   -2.0784 C   0  0  0  0  0  0
    3.9346    0.8986   -3.6934 C   0  0  0  0  0  0
    2.7890    1.3921   -4.3514 C   0  0  0  0  0  0
    2.3780    0.8858   -5.6067 C   0  0  0  0  0  0
    3.1650   -0.1256   -6.2102 C   0  0  0  0  0  0
    4.3169   -0.6170   -5.5674 C   0  0  0  0  0  0
    4.6974   -0.1115   -4.3118 C   0  0  0  0  0  0
    1.0968    1.4380   -6.2587 C   0  0  0  0  0  0
    1.2585    2.9505   -6.5156 C   0  0  0  0  0  0
   -0.1037    1.2047   -5.3163 C   0  0  0  0  0  0
    0.7678    0.7637   -7.6096 C   0  0  0  0  0  0
    1.2094    2.2925    5.4738 C   0  0  0  0  0  0
    0.7391    2.7808    6.5024 O   0  0  0  0  0  0
    2.5393    2.2724    5.2123 N   0  0  0  0  0  0
    3.1600    1.4918    4.1381 C   0  0  0  0  0  0
    3.4801    2.9617    6.0972 C   0  0  0  0  0  0
    0.5909   -2.7239   -0.6590 H   0  0  0  0  0  0
   -0.2536   -0.6656    0.7389 H   0  0  0  0  0  0
    2.0595   -1.1263   -0.4177 H   0  0  0  0  0  0
   -0.5607   -2.7794   -3.4766 H   0  0  0  0  0  0
    0.3588   -4.0709   -2.7073 H   0  0  0  0  0  0
    1.1332   -2.5338   -3.0572 H   0  0  0  0  0  0
   -2.3152   -3.0037   -1.5267 H   0  0  0  0  0  0
   -1.2983   -4.2843   -0.9273 H   0  0  0  0  0  0
   -1.0172   -2.9858    1.2362 H   0  0  0  0  0  0
   -2.2073   -1.8474    0.6479 H   0  0  0  0  0  0
   -3.8732   -3.6993    0.4237 H   0  0  0  0  0  0
   -2.7251   -4.8295    1.0928 H   0  0  0  0  0  0
   -3.6949   -2.3208    2.5354 H   0  0  0  0  0  0
   -4.4635   -3.8656    2.7131 H   0  0  0  0  0  0
   -2.5604   -4.8841    3.7401 H   0  0  0  0  0  0
   -1.4941   -3.5664    3.3661 H   0  0  0  0  0  0
   -3.9158   -3.0342    5.1304 H   0  0  0  0  0  0
   -2.5258   -3.8475    5.7851 H   0  0  0  0  0  0
   -2.3008   -1.4803    6.2629 H   0  0  0  0  0  0
   -1.0301   -1.9839    5.1667 H   0  0  0  0  0  0
   -3.1551   -1.0920    3.5875 H   0  0  0  0  0  0
   -0.6837    0.4003    5.9067 H   0  0  0  0  0  0
    0.9585    2.9063    2.8085 H   0  0  0  0  0  0
   -2.2787    0.2137    1.9060 H   0  0  0  0  0  0
   -0.4559    1.5841   -1.1562 H   0  0  0  0  0  0
    0.1127   -0.5193   -2.2616 H   0  0  0  0  0  0
   -1.4456   -0.6964   -1.5387 H   0  0  0  0  0  0
    3.0393   -0.0789    1.3010 H   0  0  0  0  0  0
    1.7904    1.0915   -1.8166 H   0  0  0  0  0  0
    2.3593    1.8989   -0.3792 H   0  0  0  0  0  0
    3.6990   -0.3854   -1.6257 H   0  0  0  0  0  0
    6.1629    1.7856   -1.1351 H   0  0  0  0  0  0
    6.3585    2.0604   -2.9439 H   0  0  0  0  0  0
    4.3586    3.5691   -2.9204 H   0  0  0  0  0  0
    4.1910    3.2940   -1.1098 H   0  0  0  0  0  0
    2.2087    2.1631   -3.8670 H   0  0  0  0  0  0
    2.9061   -0.5503   -7.1675 H   0  0  0  0  0  0
    4.9058   -1.3913   -6.0365 H   0  0  0  0  0  0
    5.5745   -0.5055   -3.8193 H   0  0  0  0  0  0
    0.3705    3.3693   -6.9902 H   0  0  0  0  0  0
    2.1057    3.1499   -7.1729 H   0  0  0  0  0  0
    1.4207    3.5093   -5.5939 H   0  0  0  0  0  0
    0.0109    1.7237   -4.3647 H   0  0  0  0  0  0
   -0.2324    0.1440   -5.0965 H   0  0  0  0  0  0
   -1.0327    1.5619   -5.7622 H   0  0  0  0  0  0
   -0.1444    1.1752   -8.0435 H   0  0  0  0  0  0
    0.6095   -0.3096   -7.4965 H   0  0  0  0  0  0
    1.5624    0.9145   -8.3414 H   0  0  0  0  0  0
    2.6439    0.5446    3.9766 H   0  0  0  0  0  0
    4.1953    1.2414    4.3715 H   0  0  0  0  0  0
    3.1586    2.0541    3.2040 H   0  0  0  0  0  0
    3.1026    3.9404    6.3979 H   0  0  0  0  0  0
    4.4424    3.1308    5.6127 H   0  0  0  0  0  0
    3.6545    2.3716    6.9976 H   0  0  0  0  0  0
  1  2  1  0  0  0
  1 47  1  0  0  0
  1 48  1  0  0  0
  1 49  1  0  0  0
  2 44  1  0  0  0
  2 21  1  0  0  0
  2  3  1  0  0  0
  3  4  1  0  0  0
  3 50  1  0  0  0
  3 51  1  0  0  0
  4  5  1  0  0  0
  4 52  1  0  0  0
  4 53  1  0  0  0
  5  6  1  0  0  0
  5 54  1  0  0  0
  5 55  1  0  0  0
  6  7  1  0  0  0
  6 56  1  0  0  0
  6 57  1  0  0  0
  7  8  1  0  0  0
  7 58  1  0  0  0
  7 59  1  0  0  0
  8  9  1  0  0  0
  8 60  1  0  0  0
  8 61  1  0  0  0
  9 10  1  0  0  0
  9 62  1  0  0  0
  9 63  1  0  0  0
 10 11  1  0  0  0
 10 64  1  0  0  0
 11 16  1  0  0  0
 11 12  2  0  0  0
 12 13  1  0  0  0
 12 65  1  0  0  0
 13 14  2  0  0  0
 13 39  1  0  0  0
 14 15  1  0  0  0
 14 66  1  0  0  0
 15 16  2  0  0  0
 15 17  1  0  0  0
 16 67  1  0  0  0
 17 18  2  0  0  0
 17 19  1  0  0  0
 19 20  1  0  0  0
 19 68  1  0  0  0
 20 45  1  0  0  0
 20 21  1  0  0  0
 20 22  1  0  0  0
 21 69  1  0  0  0
 21 70  1  0  0  0
 22 46  1  0  0  0
 22 23  1  0  0  0
 22 24  1  0  0  0
 23 71  1  0  0  0
 24 25  1  0  0  0
 24 72  1  0  0  0
 24 73  1  0  0  0
 25 26  1  0  0  0
 25 74  1  0  0  0
 26 28  1  0  0  0
 26 27  1  0  0  0
 26 29  1  0  0  0
 27 28  1  0  0  0
 27 75  1  0  0  0
 27 76  1  0  0  0
 28 77  1  0  0  0
 28 78  1  0  0  0
 29 34  1  0  0  0
 29 30  2  0  0  0
 30 31  1  0  0  0
 30 79  1  0  0  0
 31 32  2  0  0  0
 31 35  1  0  0  0
 32 33  1  0  0  0
 32 80  1  0  0  0
 33 34  2  0  0  0
 33 81  1  0  0  0
 34 82  1  0  0  0
 35 36  1  0  0  0
 35 37  1  0  0  0
 35 38  1  0  0  0
 36 83  1  0  0  0
 36 84  1  0  0  0
 36 85  1  0  0  0
 37 86  1  0  0  0
 37 87  1  0  0  0
 37 88  1  0  0  0
 38 89  1  0  0  0
 38 90  1  0  0  0
 38 91  1  0  0  0
 39 40  2  0  0  0
 39 41  1  0  0  0
 41 42  1  0  0  0
 41 43  1  0  0  0
 42 92  1  0  0  0
 42 93  1  0  0  0
 42 94  1  0  0  0
 43 95  1  0  0  0
 43 96  1  0  0  0
 43 97  1  0  0  0
M  END
> <s_m_source_file>
BACE_68.smi

> <i_m_source_file_index>
1

> <i_lp_mmshare_version>
42013

> <i_f3d_flags>
0

> <s_epik_input>
W05IXTFbQ0gyXVtDSDJdW0NIMl1bQ0gyXVtDSDJdW0NIMl1bQ0gyXVtDQEBIXShbQ0gzXSlbQ0gyXVtDQEhdKFtOSF1DKD1PKWMoW2NIXTIpW2NIXWMoW2NIXWMxMilDKD1PKU4oW0NIM10pW0NIM10pW0NASF0oW09IXSlbQ0gyXVtOSF1DMyhbQ0gyXVtDSDJdMyljNFtjSF1jKEMoW0NIM10pKFtDSDNdKVtDSDNdKVtjSF1bY0hdW2NIXTQ=

> <s_epik_cmdline>
J2VwaWtfcHl0aG9uJywgJy1waCcsICc3LjAnLCAnLXRuJywgJzgnLCAnLW1hJywgJzIwMCcsICctaW1hZScsICc8aW5maWxlLm1hZT4nLCAnLW9tYWUnLCAnPG91dGZpbGUubWFlPic=

> <r_epik_Ionization_Penalty>
0.364152

> <r_epik_Ionization_Penalty_Charging>
0

> <r_epik_Ionization_Penalty_Neutral>
0.364152

> <r_epik_State_Penalty>
0.361069

> <r_epik_Charging_Adjusted_Penalty>
0.361069

> <i_epik_Tot_Q>
0

> <i_epik_Tot_abs_Q>
0

> <s_lp_Force_Field>
OPLS_2005

> <r_lp_Energy>
68.3834

> <b_lp_Chiralities_Consistent>
1

> <s_lp_Variant>
BACE_68.smi:1-1

$$$$
BACE_68.smi:1
                    3D
 Structure written by MMmdl.
 98101  0  0  1  0            999 V2000
    0.4648   -4.9724   -1.7780 C   0  0  0  0  0  0
   -0.0599   -3.9063   -0.8025 C   0  0  2  0  0  0
   -1.1515   -4.5211    0.1037 C   0  0  0  0  0  0
   -1.6431   -3.5999    1.2307 C   0  0  0  0  0  0
   -2.6120   -4.2983    2.1990 C   0  0  0  0  0  0
   -3.1552   -3.3532    3.2830 C   0  0  0  0  0  0
   -2.1423   -3.0538    4.4052 C   0  0  0  0  0  0
   -2.5609   -1.8962    5.3322 C   0  0  0  0  0  0
   -2.0316   -0.5216    4.8859 C   0  0  0  0  0  0
   -2.6403   -0.0733    3.6416 N   0  0  0  0  0  0
   -1.8492    0.6471    2.7381 C   0  0  0  0  0  0
   -0.8490    1.5505    3.1653 C   0  0  0  0  0  0
   -0.0711    2.2532    2.2193 C   0  0  0  0  0  0
   -0.2912    2.0423    0.8444 C   0  0  0  0  0  0
   -1.2709    1.1292    0.4089 C   0  0  0  0  0  0
   -2.0595    0.4475    1.3587 C   0  0  0  0  0  0
   -1.4650    0.8870   -1.0566 C   0  0  0  0  0  0
   -2.0382    1.7258   -1.7470 O   0  0  0  0  0  0
   -0.9695   -0.2509   -1.5813 N   0  0  0  0  0  0
   -0.1903   -1.3000   -0.9116 C   0  0  1  0  0  0
   -0.5400   -2.6512   -1.5767 C   0  0  0  0  0  0
    1.3503   -1.0232   -0.9189 C   0  0  2  0  0  0
    1.7935   -0.9694    0.4241 O   0  0  0  0  0  0
    1.8207    0.2624   -1.6316 C   0  0  0  0  0  0
    3.2933    0.3839   -1.6437 N   0  3  0  0  0  0
    3.8036    1.6304   -2.2565 C   0  0  0  0  0  0
    3.8292    1.6056   -3.7676 C   0  0  0  0  0  0
    5.1120    1.4246   -2.9833 C   0  0  0  0  0  0
    3.5338    2.8783   -1.4649 C   0  0  0  0  0  0
    2.3741    3.6465   -1.7067 C   0  0  0  0  0  0
    2.1022    4.8263   -0.9689 C   0  0  0  0  0  0
    3.0401    5.2316    0.0095 C   0  0  0  0  0  0
    4.1990    4.4741    0.2580 C   0  0  0  0  0  0
    4.4418    3.2982   -0.4728 C   0  0  0  0  0  0
    0.8427    5.6802   -1.2138 C   0  0  0  0  0  0
    0.0757    5.8966    0.1089 C   0  0  0  0  0  0
   -0.1413    5.0286   -2.2115 C   0  0  0  0  0  0
    1.2621    7.0491   -1.7847 C   0  0  0  0  0  0
    1.0366    3.1673    2.6532 C   0  0  0  0  0  0
    2.1853    2.9092    2.2920 O   0  0  0  0  0  0
    0.7247    4.2442    3.4126 N   0  0  0  0  0  0
   -0.6447    4.6712    3.7151 C   0  0  0  0  0  0
    1.7806    5.1292    3.9079 C   0  0  0  0  0  0
    0.7823   -3.6329   -0.1667 H   0  0  0  0  0  0
   -0.5301   -1.3649    0.1191 H   0  0  0  0  0  0
    1.8652   -1.8644   -1.3849 H   0  0  0  0  0  0
   -0.3193   -5.3085   -2.4575 H   0  0  0  0  0  0
    0.8390   -5.8464   -1.2444 H   0  0  0  0  0  0
    1.2864   -4.5851   -2.3814 H   0  0  0  0  0  0
   -2.0015   -4.8352   -0.5035 H   0  0  0  0  0  0
   -0.7557   -5.4315    0.5561 H   0  0  0  0  0  0
   -0.7840   -3.2132    1.7785 H   0  0  0  0  0  0
   -2.1537   -2.7405    0.7970 H   0  0  0  0  0  0
   -3.4536   -4.6893    1.6257 H   0  0  0  0  0  0
   -2.1328   -5.1615    2.6627 H   0  0  0  0  0  0
   -3.4979   -2.4350    2.8085 H   0  0  0  0  0  0
   -4.0434   -3.8000    3.7314 H   0  0  0  0  0  0
   -2.0240   -3.9598    5.0009 H   0  0  0  0  0  0
   -1.1547   -2.8433    3.9955 H   0  0  0  0  0  0
   -3.6442   -1.8739    5.4582 H   0  0  0  0  0  0
   -2.1524   -2.0941    6.3237 H   0  0  0  0  0  0
   -2.2450    0.2210    5.6552 H   0  0  0  0  0  0
   -0.9463   -0.5721    4.7882 H   0  0  0  0  0  0
   -3.3223   -0.6995    3.2380 H   0  0  0  0  0  0
   -0.6703    1.7062    4.2195 H   0  0  0  0  0  0
    0.3060    2.5788    0.1220 H   0  0  0  0  0  0
   -2.8171   -0.2484    1.0266 H   0  0  0  0  0  0
   -1.1308   -0.3918   -2.5682 H   0  0  0  0  0  0
   -0.1138   -2.6468   -2.5811 H   0  0  0  0  0  0
   -1.6179   -2.7237   -1.7311 H   0  0  0  0  0  0
    1.5324   -1.7662    0.8613 H   0  0  0  0  0  0
    1.4668    0.2718   -2.6631 H   0  0  0  0  0  0
    1.4033    1.1350   -1.1394 H   0  0  0  0  0  0
    3.6202    0.3433   -0.6885 H   0  0  0  0  0  0
    3.4422    0.7281   -4.2824 H   0  0  0  0  0  0
    3.7010    2.5491   -4.2947 H   0  0  0  0  0  0
    5.8212    2.2500   -3.0056 H   0  0  0  0  0  0
    5.5549    0.4303   -2.9885 H   0  0  0  0  0  0
    1.6977    3.2994   -2.4721 H   0  0  0  0  0  0
    2.8800    6.1321    0.5828 H   0  0  0  0  0  0
    4.9004    4.7950    1.0138 H   0  0  0  0  0  0
    5.3335    2.7219   -0.2739 H   0  0  0  0  0  0
   -0.8239    6.4928   -0.0487 H   0  0  0  0  0  0
    0.6706    6.4179    0.8584 H   0  0  0  0  0  0
   -0.2396    4.9482    0.5412 H   0  0  0  0  0  0
   -0.4730    4.0493   -1.8655 H   0  0  0  0  0  0
    0.3025    4.9073   -3.2002 H   0  0  0  0  0  0
   -1.0348    5.6405   -2.3416 H   0  0  0  0  0  0
    0.3951    7.6807   -1.9817 H   0  0  0  0  0  0
    1.8040    6.9348   -2.7243 H   0  0  0  0  0  0
    1.9089    7.5949   -1.0977 H   0  0  0  0  0  0
   -1.3193    4.5100    2.8734 H   0  0  0  0  0  0
   -0.6921    5.7359    3.9458 H   0  0  0  0  0  0
   -1.0311    4.1272    4.5771 H   0  0  0  0  0  0
    2.6215    4.5607    4.3083 H   0  0  0  0  0  0
    1.4277    5.7783    4.7098 H   0  0  0  0  0  0
    2.1509    5.7623    3.1008 H   0  0  0  0  0  0
    3.6746   -0.4031   -2.1481 H   0  0  0  0  0  0
  1  2  1  0  0  0
  1 47  1  0  0  0
  1 48  1  0  0  0
  1 49  1  0  0  0
  2 44  1  0  0  0
  2 21  1  0  0  0
  2  3  1  0  0  0
  3  4  1  0  0  0
  3 50  1  0  0  0
  3 51  1  0  0  0
  4  5  1  0  0  0
  4 52  1  0  0  0
  4 53  1  0  0  0
  5  6  1  0  0  0
  5 54  1  0  0  0
  5 55  1  0  0  0
  6  7  1  0  0  0
  6 56  1  0  0  0
  6 57  1  0  0  0
  7  8  1  0  0  0
  7 58  1  0  0  0
  7 59  1  0  0  0
  8  9  1  0  0  0
  8 60  1  0  0  0
  8 61  1  0  0  0
  9 10  1  0  0  0
  9 62  1  0  0  0
  9 63  1  0  0  0
 10 11  1  0  0  0
 10 64  1  0  0  0
 11 16  1  0  0  0
 11 12  2  0  0  0
 12 13  1  0  0  0
 12 65  1  0  0  0
 13 14  2  0  0  0
 13 39  1  0  0  0
 14 15  1  0  0  0
 14 66  1  0  0  0
 15 16  2  0  0  0
 15 17  1  0  0  0
 16 67  1  0  0  0
 17 18  2  0  0  0
 17 19  1  0  0  0
 19 20  1  0  0  0
 19 68  1  0  0  0
 20 45  1  0  0  0
 20 21  1  0  0  0
 20 22  1  0  0  0
 21 69  1  0  0  0
 21 70  1  0  0  0
 22 46  1  0  0  0
 22 23  1  0  0  0
 22 24  1  0  0  0
 23 71  1  0  0  0
 24 25  1  0  0  0
 24 72  1  0  0  0
 24 73  1  0  0  0
 25 26  1  0  0  0
 25 74  1  0  0  0
 25 98  1  0  0  0
 26 28  1  0  0  0
 26 27  1  0  0  0
 26 29  1  0  0  0
 27 28  1  0  0  0
 27 75  1  0  0  0
 27 76  1  0  0  0
 28 77  1  0  0  0
 28 78  1  0  0  0
 29 34  1  0  0  0
 29 30  2  0  0  0
 30 31  1  0  0  0
 30 79  1  0  0  0
 31 32  2  0  0  0
 31 35  1  0  0  0
 32 33  1  0  0  0
 32 80  1  0  0  0
 33 34  2  0  0  0
 33 81  1  0  0  0
 34 82  1  0  0  0
 35 36  1  0  0  0
 35 37  1  0  0  0
 35 38  1  0  0  0
 36 83  1  0  0  0
 36 84  1  0  0  0
 36 85  1  0  0  0
 37 86  1  0  0  0
 37 87  1  0  0  0
 37 88  1  0  0  0
 38 89  1  0  0  0
 38 90  1  0  0  0
 38 91  1  0  0  0
 39 40  2  0  0  0
 39 41  1  0  0  0
 41 42  1  0  0  0
 41 43  1  0  0  0
 42 92  1  0  0  0
 42 93  1  0  0  0
 42 94  1  0  0  0
 43 95  1  0  0  0
 43 96  1  0  0  0
 43 97  1  0  0  0
M  CHG  1  25   1
M  END
> <s_m_source_file>
BACE_68.smi

> <i_m_source_file_index>
1

> <i_lp_mmshare_version>
42013

> <i_f3d_flags>
0

> <s_epik_input>
W05IXTFbQ0gyXVtDSDJdW0NIMl1bQ0gyXVtDSDJdW0NIMl1bQ0gyXVtDQEBIXShbQ0gzXSlbQ0gyXVtDQEhdKFtOSF1DKD1PKWMoW2NIXTIpW2NIXWMoW2NIXWMxMilDKD1PKU4oW0NIM10pW0NIM10pW0NASF0oW09IXSlbQ0gyXVtOSF1DMyhbQ0gyXVtDSDJdMyljNFtjSF1jKEMoW0NIM10pKFtDSDNdKVtDSDNdKVtjSF1bY0hdW2NIXTQ=

> <s_epik_cmdline>
J2VwaWtfcHl0aG9uJywgJy1waCcsICc3LjAnLCAnLXRuJywgJzgnLCAnLW1hJywgJzIwMCcsICctaW1hZScsICc8aW5maWxlLm1hZT4nLCAnLW9tYWUnLCAnPG91dGZpbGUubWFlPic=

> <r_epik_Ionization_Penalty>
0.461379

> <r_epik_Ionization_Penalty_Charging>
0.46129

> <r_epik_Ionization_Penalty_Neutral>
8.81935e-05

> <r_epik_State_Penalty>
0.464828

> <r_epik_Charging_Adjusted_Penalty>
0.926118

> <i_epik_Tot_Q>
1

> <i_epik_Tot_abs_Q>
1

> <s_lp_Force_Field>
OPLS_2005

> <r_lp_Energy>
55.0954

> <b_lp_Chiralities_Consistent>
1

> <s_lp_Variant>
BACE_68.smi:1-2

$$$$
