BACE_151.smi:1
 OpenBabel09291822493D
Structure written by MMmdl.
 81 81  0  0  1  0  0  0  0  0999 V2000
   24.4579   50.3223   -0.4418 C   0  0  0  0  0  0  0  0  0  0  0  0
   23.9591   51.0045   -1.7256 C   0  0  0  0  0  0  0  0  0  0  0  0
   22.8995   50.1847   -2.4790 C   0  0  0  0  0  0  0  0  0  0  0  0
   22.5589   50.7717   -3.8547 C   0  0  0  0  0  0  0  0  0  0  0  0
   21.6602   49.9111   -4.6189 N   0  0  0  0  0  0  0  0  0  0  0  0
   21.9884   49.2281   -5.7309 C   0  0  0  0  0  0  0  0  0  0  0  0
   23.1277   49.2435   -6.2030 O   0  0  0  0  0  0  0  0  0  0  0  0
   20.8866   48.4080   -6.4306 C   0  0  2  0  0  0  0  0  0  0  0  0
   19.4986   49.0614   -6.2591 C   0  0  0  0  0  0  0  0  0  0  0  0
   20.9883   46.9125   -6.0158 C   0  0  0  0  0  0  0  0  0  0  0  0
   19.8388   45.9814   -6.4841 C   0  0  2  0  0  0  0  0  0  0  0  0
   18.7213   46.2162   -5.6491 O   0  0  0  0  0  0  0  0  0  0  0  0
   20.1102   44.4404   -6.4347 C   0  0  2  0  0  0  0  0  0  0  0  0
   21.2649   43.9814   -5.5113 C   0  0  0  0  0  0  0  0  0  0  0  0
   21.0483   42.5772   -4.8960 C   0  0  2  0  0  0  0  0  0  0  0  0
   20.5616   42.6787   -3.4399 C   0  0  0  0  0  0  0  0  0  0  0  0
   22.3009   41.6805   -5.0218 C   0  0  0  0  0  0  0  0  0  0  0  0
   22.2381   40.7813   -6.2705 C   0  0  0  0  0  0  0  0  0  0  0  0
   21.3236   39.5652   -6.0428 C   0  0  0  0  0  0  0  0  0  0  0  0
   21.0522   38.7242   -7.2984 C   0  0  0  0  0  0  0  0  0  0  0  0
   20.0396   39.3918   -8.2422 C   0  0  0  0  0  0  0  0  0  0  0  0
   19.7359   38.5688   -9.5026 C   0  0  0  0  0  0  0  0  0  0  0  0
   18.7688   39.2733  -10.4739 C   0  0  0  0  0  0  0  0  0  0  0  0
   19.3704   40.5175  -11.1581 C   0  0  0  0  0  0  0  0  0  0  0  0
   18.5866   42.0903  -10.5775 S   0  0  0  0  0  0  0  0  0  0  0  0
   17.4434   42.3770  -11.4594 O   0  0  0  0  0  0  0  0  0  0  0  0
   18.3898   42.0151   -9.1214 O   0  0  0  0  0  0  0  0  0  0  0  0
   19.8943   43.3484  -10.9132 C   0  0  0  0  0  0  0  0  0  0  0  0
   21.1065   43.2012   -9.9612 C   0  0  1  0  0  0  0  0  0  0  0  0
   22.4356   43.3260  -10.7266 C   0  0  0  0  0  0  0  0  0  0  0  0
   21.0356   44.1746   -8.7692 C   0  0  0  0  0  0  0  0  0  0  0  0
   21.7148   45.2019   -8.7586 O   0  0  0  0  0  0  0  0  0  0  0  0
   20.2282   43.8161   -7.7561 N   0  0  0  0  0  0  0  0  0  0  0  0
   21.1131   48.4506   -7.4952 H   0  0  0  0  0  0  0  0  0  0  0  0
   19.5366   46.2677   -7.4950 H   0  0  0  0  0  0  0  0  0  0  0  0
   19.2034   43.9737   -6.0465 H   0  0  0  0  0  0  0  0  0  0  0  0
   20.2383   42.0879   -5.4393 H   0  0  0  0  0  0  0  0  0  0  0  0
   21.1090   42.2009   -9.5351 H   0  0  0  0  0  0  0  0  0  0  0  0
   25.2108   50.9378    0.0512 H   0  0  0  0  0  0  0  0  0  0  0  0
   24.9238   49.3605   -0.6697 H   0  0  0  0  0  0  0  0  0  0  0  0
   23.6601   50.1492    0.2792 H   0  0  0  0  0  0  0  0  0  0  0  0
   23.5542   51.9860   -1.4764 H   0  0  0  0  0  0  0  0  0  0  0  0
   24.8155   51.1839   -2.3790 H   0  0  0  0  0  0  0  0  0  0  0  0
   23.2601   49.1617   -2.6051 H   0  0  0  0  0  0  0  0  0  0  0  0
   21.9920   50.1504   -1.8731 H   0  0  0  0  0  0  0  0  0  0  0  0
   22.0582   51.7313   -3.7230 H   0  0  0  0  0  0  0  0  0  0  0  0
   23.4804   50.9516   -4.4064 H   0  0  0  0  0  0  0  0  0  0  0  0
   20.7018   49.8553   -4.2913 H   0  0  0  0  0  0  0  0  0  0  0  0
   19.5314   50.1289   -6.4925 H   0  0  0  0  0  0  0  0  0  0  0  0
   19.1174   48.9426   -5.2461 H   0  0  0  0  0  0  0  0  0  0  0  0
   18.7728   48.6245   -6.9440 H   0  0  0  0  0  0  0  0  0  0  0  0
   21.9252   46.5338   -6.4313 H   0  0  0  0  0  0  0  0  0  0  0  0
   21.1123   46.8437   -4.9363 H   0  0  0  0  0  0  0  0  0  0  0  0
   17.9786   45.7792   -6.0410 H   0  0  0  0  0  0  0  0  0  0  0  0
   22.2047   44.0320   -6.0629 H   0  0  0  0  0  0  0  0  0  0  0  0
   21.3985   44.6755   -4.6873 H   0  0  0  0  0  0  0  0  0  0  0  0
   21.3259   43.1110   -2.7932 H   0  0  0  0  0  0  0  0  0  0  0  0
   20.3002   41.6964   -3.0459 H   0  0  0  0  0  0  0  0  0  0  0  0
   19.6714   43.3098   -3.3724 H   0  0  0  0  0  0  0  0  0  0  0  0
   23.2035   42.2931   -5.0414 H   0  0  0  0  0  0  0  0  0  0  0  0
   22.4108   41.0461   -4.1407 H   0  0  0  0  0  0  0  0  0  0  0  0
   21.9129   41.3717   -7.1251 H   0  0  0  0  0  0  0  0  0  0  0  0
   23.2363   40.4172   -6.5192 H   0  0  0  0  0  0  0  0  0  0  0  0
   21.8049   38.9500   -5.2856 H   0  0  0  0  0  0  0  0  0  0  0  0
   20.3701   39.8668   -5.6088 H   0  0  0  0  0  0  0  0  0  0  0  0
   21.9891   38.5220   -7.8210 H   0  0  0  0  0  0  0  0  0  0  0  0
   20.6566   37.7535   -6.9877 H   0  0  0  0  0  0  0  0  0  0  0  0
   19.1087   39.5785   -7.7030 H   0  0  0  0  0  0  0  0  0  0  0  0
   20.4204   40.3666   -8.5323 H   0  0  0  0  0  0  0  0  0  0  0  0
   20.6627   38.3291  -10.0236 H   0  0  0  0  0  0  0  0  0  0  0  0
   19.3012   37.6148   -9.2057 H   0  0  0  0  0  0  0  0  0  0  0  0
   18.4849   38.5554  -11.2418 H   0  0  0  0  0  0  0  0  0  0  0  0
   17.8394   39.5281   -9.9622 H   0  0  0  0  0  0  0  0  0  0  0  0
   20.4460   40.5716  -11.0004 H   0  0  0  0  0  0  0  0  0  0  0  0
   19.2168   40.4654  -12.2348 H   0  0  0  0  0  0  0  0  0  0  0  0
   20.1849   43.2362  -11.9564 H   0  0  0  0  0  0  0  0  0  0  0  0
   19.4341   44.3331  -10.8214 H   0  0  0  0  0  0  0  0  0  0  0  0
   23.2898   43.2659  -10.0501 H   0  0  0  0  0  0  0  0  0  0  0  0
   22.4999   44.2728  -11.2650 H   0  0  0  0  0  0  0  0  0  0  0  0
   22.5460   42.5212  -11.4558 H   0  0  0  0  0  0  0  0  0  0  0  0
   19.6626   42.9853   -7.9015 H   0  0  0  0  0  0  0  0  0  0  0  0
  1  2  1  0  0  0  0
  1 39  1  0  0  0  0
  1 40  1  0  0  0  0
  1 41  1  0  0  0  0
  2  3  1  0  0  0  0
  2 42  1  0  0  0  0
  2 43  1  0  0  0  0
  3  4  1  0  0  0  0
  3 44  1  0  0  0  0
  3 45  1  0  0  0  0
  4  5  1  0  0  0  0
  4 46  1  0  0  0  0
  4 47  1  0  0  0  0
  5  6  1  0  0  0  0
  5 48  1  0  0  0  0
  6  7  2  0  0  0  0
  6  8  1  0  0  0  0
  8 34  1  6  0  0  0
  8  9  1  0  0  0  0
  8 10  1  0  0  0  0
  9 49  1  0  0  0  0
  9 50  1  0  0  0  0
  9 51  1  0  0  0  0
 10 11  1  0  0  0  0
 10 52  1  0  0  0  0
 10 53  1  0  0  0  0
 11 35  1  6  0  0  0
 11 12  1  0  0  0  0
 11 13  1  0  0  0  0
 12 54  1  0  0  0  0
 13 36  1  1  0  0  0
 13 33  1  0  0  0  0
 13 14  1  0  0  0  0
 14 15  1  0  0  0  0
 14 55  1  0  0  0  0
 14 56  1  0  0  0  0
 15 37  1  6  0  0  0
 15 16  1  0  0  0  0
 15 17  1  0  0  0  0
 16 57  1  0  0  0  0
 16 58  1  0  0  0  0
 16 59  1  0  0  0  0
 17 18  1  0  0  0  0
 17 60  1  0  0  0  0
 17 61  1  0  0  0  0
 18 19  1  0  0  0  0
 18 62  1  0  0  0  0
 18 63  1  0  0  0  0
 19 20  1  0  0  0  0
 19 64  1  0  0  0  0
 19 65  1  0  0  0  0
 20 21  1  0  0  0  0
 20 66  1  0  0  0  0
 20 67  1  0  0  0  0
 21 22  1  0  0  0  0
 21 68  1  0  0  0  0
 21 69  1  0  0  0  0
 22 23  1  0  0  0  0
 22 70  1  0  0  0  0
 22 71  1  0  0  0  0
 23 24  1  0  0  0  0
 23 72  1  0  0  0  0
 23 73  1  0  0  0  0
 24 25  1  0  0  0  0
 24 74  1  0  0  0  0
 24 75  1  0  0  0  0
 25 26  2  0  0  0  0
 25 27  2  0  0  0  0
 25 28  1  0  0  0  0
 28 29  1  0  0  0  0
 28 76  1  0  0  0  0
 28 77  1  0  0  0  0
 29 38  1  1  0  0  0
 29 30  1  0  0  0  0
 29 31  1  0  0  0  0
 30 78  1  0  0  0  0
 30 79  1  0  0  0  0
 30 80  1  0  0  0  0
 31 32  2  0  0  0  0
 31 33  1  0  0  0  0
 33 81  1  0  0  0  0
M  END
>  <s_m_source_file>
BACE_151.smi

>  <i_m_source_file_index>
1

>  <i_lp_mmshare_version>
42013

>  <i_f3d_flags>
0

>  <s_epik_input>
W0NIM11bQ0gyXVtDSDJdW0NIMl1bTkhdQyg9TylbQ0BIXShbQ0gzXSlbQ0gyXVtDQEhdKFtPSF0pW0NAQEhdKFtOSF1DKD1PKVtDQEBIXShbQ0gyXTEpW0NIM10pW0NIMl1bQ0BIXShbQ0gzXSlbQ0gyXVtDSDJdW0NIMl1bQ0gyXVtDSDJdW0NIMl1bQ0gyXVtDSDJdUzEoPU8pPU8=

>  <s_epik_cmdline>
J2VwaWtfcHl0aG9uJywgJy1waCcsICc3LjAnLCAnLXRuJywgJzgnLCAnLW1hJywgJzIwMCcsICctaW1hZScsICc8aW5maWxlLm1hZT4nLCAnLW9tYWUnLCAnPG91dGZpbGUubWFlPic=

>  <r_lp_tautomer_probability>
1

>  <r_epik_Ionization_Penalty>
0.0000

>  <r_epik_Ionization_Penalty_Charging>
0.0000

>  <r_epik_Ionization_Penalty_Neutral>
0.0000

>  <r_epik_State_Penalty>
-0.0000

>  <r_epik_Charging_Adjusted_Penalty>
0

>  <i_epik_Tot_Q>
0

>  <i_epik_Tot_abs_Q>
0

>  <s_lp_Force_Field>
OPLS_2005

>  <r_lp_Energy>
18.351

>  <b_lp_Chiralities_Consistent>
1

>  <s_lp_Variant>
BACE_151.smi:1-1

>  <chiral flag>
1

>  <version>
0

>  <s_i_glide_gridfile>
second_dock_grid_2

>  <i_i_glide_lignum>
304

>  <i_i_glide_rotatable_bonds>
9

>  <r_i_docking_score>
-4.51848

>  <r_i_glide_ligand_efficiency>
-0.136924

>  <r_i_glide_ligand_efficiency_sa>
-0.439187

>  <r_i_glide_ligand_efficiency_ln>
-1.00489

>  <r_glide_XP_GScore>
-4.51848

>  <r_i_glide_gscore>
-4.51848

>  <r_i_glide_evdw>
-33.2832

>  <r_i_glide_ecoul>
-6.14294

>  <r_i_glide_energy>
-39.4262

>  <r_i_glide_einternal>
12.5407

>  <r_i_glide_emodel>
-47.1643

>  <r_glide_XP_HBond>
-0.48

>  <i_i_glide_confnum>
1

>  <i_i_glide_posenum>
2

>  <r_i_glide_eff_state_penalty>
-0

>  <i_glide_XP_PoseRank>
1

$$$$
