BACE_70.smi:1
 OpenBabel09291822493D
Structure written by MMmdl.
 85 87  0  0  1  0  0  0  0  0999 V2000
   30.7891   45.1582  -10.9216 C   0  0  0  0  0  0  0  0  0  0  0  0
   29.7727   44.7629   -9.8361 C   0  0  0  0  0  0  0  0  0  0  0  0
   30.4702   44.2757   -8.5590 C   0  0  0  0  0  0  0  0  0  0  0  0
   28.7368   43.7534  -10.3260 C   0  0  0  0  0  0  0  0  0  0  0  0
   27.3775   43.9289   -9.9825 C   0  0  0  0  0  0  0  0  0  0  0  0
   26.3799   43.0220  -10.4239 C   0  0  0  0  0  0  0  0  0  0  0  0
   26.7833   41.9352  -11.2351 C   0  0  0  0  0  0  0  0  0  0  0  0
   28.1340   41.7501  -11.5778 C   0  0  0  0  0  0  0  0  0  0  0  0
   29.1115   42.6469  -11.1170 C   0  0  0  0  0  0  0  0  0  0  0  0
   24.8873   43.1896  -10.0661 C   0  0  0  0  0  0  0  0  0  0  0  0
   24.6778   44.2232   -8.9295 C   0  0  0  0  0  0  0  0  0  0  0  0
   24.1242   43.6832  -11.3124 C   0  0  0  0  0  0  0  0  0  0  0  0
   24.3569   41.8737   -9.6599 N   0  0  0  0  0  0  0  0  0  0  0  0
   23.0275   41.7740   -9.0413 C   0  0  0  0  0  0  0  0  0  0  0  0
   22.6704   40.3043   -8.7428 C   0  0  1  0  0  0  0  0  0  0  0  0
   23.7510   39.7436   -8.0397 O   0  0  0  0  0  0  0  0  0  0  0  0
   21.3570   40.1080   -7.9273 C   0  0  2  0  0  0  0  0  0  0  0  0
   21.4828   39.9195   -6.3860 C   0  0  0  0  0  0  0  0  0  0  0  0
   21.8598   41.1827   -5.5786 C   0  0  2  0  0  0  0  0  0  0  0  0
   22.4697   40.7956   -4.2198 C   0  0  0  0  0  0  0  0  0  0  0  0
   20.6321   42.1073   -5.3885 C   0  0  0  0  0  0  0  0  0  0  0  0
   20.9478   43.6012   -5.1734 C   0  0  0  0  0  0  0  0  0  0  0  0
   21.4967   44.3483   -6.4077 C   0  0  0  0  0  0  0  0  0  0  0  0
   20.6360   44.3280   -7.6961 C   0  0  0  0  0  0  0  0  0  0  0  0
   19.5593   45.4258   -7.8094 C   0  0  0  0  0  0  0  0  0  0  0  0
   18.2525   45.1941   -7.0291 C   0  0  0  0  0  0  0  0  0  0  0  0
   17.2032   44.3102   -7.7267 C   0  0  0  0  0  0  0  0  0  0  0  0
   17.4974   42.8832   -7.6401 N   0  0  0  0  0  0  0  0  0  0  0  0
   17.7598   42.0959   -8.7677 C   0  0  0  0  0  0  0  0  0  0  0  0
   17.4244   42.4726  -10.0893 C   0  0  0  0  0  0  0  0  0  0  0  0
   17.7737   41.6130  -11.1460 C   0  0  0  0  0  0  0  0  0  0  0  0
   18.4629   40.4237  -10.8573 C   0  0  0  0  0  0  0  0  0  0  0  0
   18.7735   40.1329   -9.5139 C   0  0  0  0  0  0  0  0  0  0  0  0
   18.3850   40.9346   -8.4948 N   0  0  0  0  0  0  0  0  0  0  0  0
   19.5179   38.8676   -9.1863 C   0  0  0  0  0  0  0  0  0  0  0  0
   19.1340   37.7930   -9.6425 O   0  0  0  0  0  0  0  0  0  0  0  0
   20.6493   38.9392   -8.4604 N   0  0  0  0  0  0  0  0  0  0  0  0
   22.5965   39.7852   -9.7014 H   0  0  0  0  0  0  0  0  0  0  0  0
   20.7781   41.0086   -8.0954 H   0  0  0  0  0  0  0  0  0  0  0  0
   22.6379   41.7102   -6.1236 H   0  0  0  0  0  0  0  0  0  0  0  0
   30.2846   45.5224  -11.8169 H   0  0  0  0  0  0  0  0  0  0  0  0
   31.4289   44.3242  -11.2073 H   0  0  0  0  0  0  0  0  0  0  0  0
   31.4431   45.9570  -10.5704 H   0  0  0  0  0  0  0  0  0  0  0  0
   29.2340   45.6762   -9.5778 H   0  0  0  0  0  0  0  0  0  0  0  0
   29.7495   44.1503   -7.7496 H   0  0  0  0  0  0  0  0  0  0  0  0
   31.2122   44.9982   -8.2178 H   0  0  0  0  0  0  0  0  0  0  0  0
   30.9781   43.3217   -8.7148 H   0  0  0  0  0  0  0  0  0  0  0  0
   27.1261   44.7789   -9.3697 H   0  0  0  0  0  0  0  0  0  0  0  0
   26.0523   41.2275  -11.5965 H   0  0  0  0  0  0  0  0  0  0  0  0
   28.4235   40.9039  -12.1857 H   0  0  0  0  0  0  0  0  0  0  0  0
   30.1441   42.4792  -11.3827 H   0  0  0  0  0  0  0  0  0  0  0  0
   25.0307   45.2145   -9.2136 H   0  0  0  0  0  0  0  0  0  0  0  0
   25.1943   43.9252   -8.0146 H   0  0  0  0  0  0  0  0  0  0  0  0
   23.6265   44.3615   -8.6874 H   0  0  0  0  0  0  0  0  0  0  0  0
   24.5374   44.6249  -11.6768 H   0  0  0  0  0  0  0  0  0  0  0  0
   23.0672   43.8469  -11.1059 H   0  0  0  0  0  0  0  0  0  0  0  0
   24.1915   42.9625  -12.1289 H   0  0  0  0  0  0  0  0  0  0  0  0
   25.0420   41.3709   -9.1015 H   0  0  0  0  0  0  0  0  0  0  0  0
   23.0076   42.3352   -8.1128 H   0  0  0  0  0  0  0  0  0  0  0  0
   22.2672   42.2062   -9.6925 H   0  0  0  0  0  0  0  0  0  0  0  0
   24.2620   39.2380   -8.6687 H   0  0  0  0  0  0  0  0  0  0  0  0
   20.5321   39.5498   -5.9943 H   0  0  0  0  0  0  0  0  0  0  0  0
   22.1893   39.1156   -6.1765 H   0  0  0  0  0  0  0  0  0  0  0  0
   21.7624   40.2285   -3.6133 H   0  0  0  0  0  0  0  0  0  0  0  0
   22.7675   41.6754   -3.6489 H   0  0  0  0  0  0  0  0  0  0  0  0
   23.3587   40.1777   -4.3468 H   0  0  0  0  0  0  0  0  0  0  0  0
   19.9411   42.0035   -6.2208 H   0  0  0  0  0  0  0  0  0  0  0  0
   20.0603   41.7514   -4.5298 H   0  0  0  0  0  0  0  0  0  0  0  0
   20.0559   44.1010   -4.8040 H   0  0  0  0  0  0  0  0  0  0  0  0
   21.6692   43.6984   -4.3617 H   0  0  0  0  0  0  0  0  0  0  0  0
   21.7073   45.3809   -6.1313 H   0  0  0  0  0  0  0  0  0  0  0  0
   22.4746   43.9265   -6.6386 H   0  0  0  0  0  0  0  0  0  0  0  0
   21.3200   44.4945   -8.5286 H   0  0  0  0  0  0  0  0  0  0  0  0
   20.2173   43.3455   -7.8960 H   0  0  0  0  0  0  0  0  0  0  0  0
   19.9985   46.3721   -7.4921 H   0  0  0  0  0  0  0  0  0  0  0  0
   19.3106   45.5676   -8.8616 H   0  0  0  0  0  0  0  0  0  0  0  0
   18.4609   44.8262   -6.0338 H   0  0  0  0  0  0  0  0  0  0  0  0
   17.7940   46.1724   -6.8823 H   0  0  0  0  0  0  0  0  0  0  0  0
   16.2402   44.4603   -7.2423 H   0  0  0  0  0  0  0  0  0  0  0  0
   17.0711   44.6588   -8.7458 H   0  0  0  0  0  0  0  0  0  0  0  0
   17.6538   42.4632   -6.7279 H   0  0  0  0  0  0  0  0  0  0  0  0
   16.8962   43.3847  -10.3161 H   0  0  0  0  0  0  0  0  0  0  0  0
   17.5242   41.8656  -12.1653 H   0  0  0  0  0  0  0  0  0  0  0  0
   18.7490   39.7484  -11.6504 H   0  0  0  0  0  0  0  0  0  0  0  0
   21.0986   38.0542   -8.2872 H   0  0  0  0  0  0  0  0  0  0  0  0
  1  2  1  0  0  0  0
  1 41  1  0  0  0  0
  1 42  1  0  0  0  0
  1 43  1  0  0  0  0
  2  3  1  0  0  0  0
  2  4  1  0  0  0  0
  2 44  1  0  0  0  0
  3 45  1  0  0  0  0
  3 46  1  0  0  0  0
  3 47  1  0  0  0  0
  4  9  1  0  0  0  0
  4  5  2  0  0  0  0
  5  6  1  0  0  0  0
  5 48  1  0  0  0  0
  6  7  2  0  0  0  0
  6 10  1  0  0  0  0
  7  8  1  0  0  0  0
  7 49  1  0  0  0  0
  8  9  2  0  0  0  0
  8 50  1  0  0  0  0
  9 51  1  0  0  0  0
 10 11  1  0  0  0  0
 10 12  1  0  0  0  0
 10 13  1  0  0  0  0
 11 52  1  0  0  0  0
 11 53  1  0  0  0  0
 11 54  1  0  0  0  0
 12 55  1  0  0  0  0
 12 56  1  0  0  0  0
 12 57  1  0  0  0  0
 13 14  1  0  0  0  0
 13 58  1  0  0  0  0
 14 15  1  0  0  0  0
 14 59  1  0  0  0  0
 14 60  1  0  0  0  0
 15 38  1  6  0  0  0
 15 16  1  0  0  0  0
 15 17  1  0  0  0  0
 16 61  1  0  0  0  0
 17 39  1  6  0  0  0
 17 37  1  0  0  0  0
 17 18  1  0  0  0  0
 18 19  1  0  0  0  0
 18 62  1  0  0  0  0
 18 63  1  0  0  0  0
 19 40  1  6  0  0  0
 19 20  1  0  0  0  0
 19 21  1  0  0  0  0
 20 64  1  0  0  0  0
 20 65  1  0  0  0  0
 20 66  1  0  0  0  0
 21 22  1  0  0  0  0
 21 67  1  0  0  0  0
 21 68  1  0  0  0  0
 22 23  1  0  0  0  0
 22 69  1  0  0  0  0
 22 70  1  0  0  0  0
 23 24  1  0  0  0  0
 23 71  1  0  0  0  0
 23 72  1  0  0  0  0
 24 25  1  0  0  0  0
 24 73  1  0  0  0  0
 24 74  1  0  0  0  0
 25 26  1  0  0  0  0
 25 75  1  0  0  0  0
 25 76  1  0  0  0  0
 26 27  1  0  0  0  0
 26 77  1  0  0  0  0
 26 78  1  0  0  0  0
 27 28  1  0  0  0  0
 27 79  1  0  0  0  0
 27 80  1  0  0  0  0
 28 29  1  0  0  0  0
 28 81  1  0  0  0  0
 29 34  1  0  0  0  0
 29 30  2  0  0  0  0
 30 31  1  0  0  0  0
 30 82  1  0  0  0  0
 31 32  2  0  0  0  0
 31 83  1  0  0  0  0
 32 33  1  0  0  0  0
 32 84  1  0  0  0  0
 33 34  2  0  0  0  0
 33 35  1  0  0  0  0
 35 36  2  0  0  0  0
 35 37  1  0  0  0  0
 37 85  1  0  0  0  0
M  END
>  <s_m_source_file>
BACE_70.smi

>  <i_m_source_file_index>
1

>  <i_lp_mmshare_version>
42013

>  <i_f3d_flags>
0

>  <s_epik_input>
W0NIM11bQ0hdKFtDSDNdKWMxW2NIXWMoW2NIXVtjSF1bY0hdMSlDKFtDSDNdKShbQ0gzXSlbTkhdW0NIMl1bQ0BASF0oW09IXSlbQ0BASF0oW05IXUMoPU8pYyhuMilbY0hdW2NIXVtjSF1jMjMpW0NIMl1bQ0BIXShbQ0gzXSlbQ0gyXVtDSDJdW0NIMl1bQ0gyXVtDSDJdW0NIMl1bQ0gyXVtOSF0z

>  <s_epik_cmdline>
J2VwaWtfcHl0aG9uJywgJy1waCcsICc3LjAnLCAnLXRuJywgJzgnLCAnLW1hJywgJzIwMCcsICctaW1hZScsICc8aW5maWxlLm1hZT4nLCAnLW9tYWUnLCAnPG91dGZpbGUubWFlPic=

>  <r_lp_tautomer_probability>
1

>  <r_epik_Ionization_Penalty>
2.1294

>  <r_epik_Ionization_Penalty_Charging>
0.0000

>  <r_epik_Ionization_Penalty_Neutral>
2.1294

>  <r_epik_State_Penalty>
2.2483

>  <r_epik_Charging_Adjusted_Penalty>
2.2483

>  <i_epik_Tot_Q>
0

>  <i_epik_Tot_abs_Q>
0

>  <s_lp_Force_Field>
OPLS_2005

>  <r_lp_Energy>
50.1854

>  <b_lp_Chiralities_Consistent>
1

>  <s_lp_Variant>
BACE_70.smi:1-2

>  <chiral flag>
1

>  <version>
0

>  <s_i_glide_gridfile>
second_dock_grid_2

>  <i_i_glide_lignum>
140

>  <i_i_glide_rotatable_bonds>
7

>  <r_i_docking_score>
-0.412867

>  <r_i_glide_ligand_efficiency>
-0.0111586

>  <r_i_glide_ligand_efficiency_sa>
-0.0371828

>  <r_i_glide_ligand_efficiency_ln>
-0.0895411

>  <r_glide_XP_GScore>
-2.66117

>  <r_i_glide_gscore>
-2.66117

>  <r_i_glide_evdw>
-38.0634

>  <r_i_glide_ecoul>
-5.03694

>  <r_i_glide_energy>
-43.1004

>  <r_i_glide_einternal>
6.33545

>  <r_i_glide_emodel>
-53.5484

>  <r_glide_XP_HBond>
-0.715737

>  <i_i_glide_confnum>
1

>  <i_i_glide_posenum>
13

>  <r_i_glide_eff_state_penalty>
2.2483

>  <i_glide_XP_PoseRank>
1

$$$$
