BACE_58.smi:1
 OpenBabel09291822493D
Structure written by MMmdl.
 80 82  0  0  1  0  0  0  0  0999 V2000
   23.3551   40.8387   -9.8031 C   0  0  0  0  0  0  0  0  0  0  0  0
   21.8214   40.7708   -9.7389 C   0  0  2  0  0  0  0  0  0  0  0  0
   21.3127   39.3351   -9.9954 C   0  0  0  0  0  0  0  0  0  0  0  0
   21.6217   38.2955   -8.9004 C   0  0  0  0  0  0  0  0  0  0  0  0
   21.0512   38.5955   -7.4976 C   0  0  0  0  0  0  0  0  0  0  0  0
   19.5658   38.9953   -7.4560 C   0  0  0  0  0  0  0  0  0  0  0  0
   18.5561   38.0567   -8.1463 C   0  0  0  0  0  0  0  0  0  0  0  0
   17.1859   38.7392   -8.3112 C   0  0  0  0  0  0  0  0  0  0  0  0
   16.4387   38.3045   -9.5853 C   0  0  0  0  0  0  0  0  0  0  0  0
   15.2904   39.1606   -9.8675 N   0  0  0  0  0  0  0  0  0  0  0  0
   15.5010   40.5056  -10.2135 C   0  0  0  0  0  0  0  0  0  0  0  0
   16.6289   40.9546  -10.9500 C   0  0  0  0  0  0  0  0  0  0  0  0
   16.7852   42.3266  -11.2618 C   0  0  0  0  0  0  0  0  0  0  0  0
   15.8023   43.2483  -10.8405 C   0  0  0  0  0  0  0  0  0  0  0  0
   14.6847   42.8096  -10.1060 C   0  0  0  0  0  0  0  0  0  0  0  0
   14.5355   41.4456   -9.8016 C   0  0  0  0  0  0  0  0  0  0  0  0
   17.9115   42.8202  -12.1276 C   0  0  0  0  0  0  0  0  0  0  0  0
   17.6566   43.3533  -13.2075 O   0  0  0  0  0  0  0  0  0  0  0  0
   19.1812   42.7111  -11.7119 N   0  0  0  0  0  0  0  0  0  0  0  0
   19.7248   42.1782  -10.4671 C   0  0  1  0  0  0  0  0  0  0  0  0
   21.1934   41.7508  -10.7545 C   0  0  0  0  0  0  0  0  0  0  0  0
   19.5028   43.1981   -9.3008 C   0  0  2  0  0  0  0  0  0  0  0  0
   20.6573   43.9974   -9.1206 O   0  0  0  0  0  0  0  0  0  0  0  0
   19.1544   42.5013   -7.9669 C   0  0  0  0  0  0  0  0  0  0  0  0
   18.4782   43.3489   -6.9898 N   0  0  0  0  0  0  0  0  0  0  0  0
   19.3564   44.2655   -6.2679 C   0  0  0  0  0  0  0  0  0  0  0  0
   19.0301   45.6963   -6.5642 C   0  0  0  0  0  0  0  0  0  0  0  0
   18.3956   46.2321   -7.7218 C   0  0  0  0  0  0  0  0  0  0  0  0
   18.4306   47.5816   -7.5393 C   0  0  0  0  0  0  0  0  0  0  0  0
   19.0212   47.7758   -6.3075 N   0  0  0  0  0  0  0  0  0  0  0  0
   19.3642   46.6314   -5.6903 N   0  0  0  0  0  0  0  0  0  0  0  0
   17.9963   48.7115   -8.4266 C   0  0  0  0  0  0  0  0  0  0  0  0
   19.2280   49.3338   -9.1106 C   0  0  0  0  0  0  0  0  0  0  0  0
   17.2960   49.7849   -7.5873 C   0  0  0  0  0  0  0  0  0  0  0  0
   17.0221   48.2188   -9.5217 C   0  0  0  0  0  0  0  0  0  0  0  0
   21.5365   41.0822   -8.7384 H   0  0  0  0  0  0  0  0  0  0  0  0
   19.1586   41.2750  -10.2535 H   0  0  0  0  0  0  0  0  0  0  0  0
   18.6707   43.8518   -9.5556 H   0  0  0  0  0  0  0  0  0  0  0  0
   23.7235   40.5417  -10.7877 H   0  0  0  0  0  0  0  0  0  0  0  0
   23.8144   40.1851   -9.0633 H   0  0  0  0  0  0  0  0  0  0  0  0
   23.7180   41.8468   -9.6062 H   0  0  0  0  0  0  0  0  0  0  0  0
   20.2380   39.3500  -10.1640 H   0  0  0  0  0  0  0  0  0  0  0  0
   21.7288   38.9795  -10.9377 H   0  0  0  0  0  0  0  0  0  0  0  0
   21.2275   37.3389   -9.2396 H   0  0  0  0  0  0  0  0  0  0  0  0
   22.7008   38.1544   -8.8353 H   0  0  0  0  0  0  0  0  0  0  0  0
   21.2139   37.7498   -6.8389 H   0  0  0  0  0  0  0  0  0  0  0  0
   21.6312   39.4055   -7.0522 H   0  0  0  0  0  0  0  0  0  0  0  0
   19.2580   39.1632   -6.4235 H   0  0  0  0  0  0  0  0  0  0  0  0
   19.5038   39.9548   -7.9485 H   0  0  0  0  0  0  0  0  0  0  0  0
   18.9337   37.7724   -9.1261 H   0  0  0  0  0  0  0  0  0  0  0  0
   18.4391   37.1283   -7.5874 H   0  0  0  0  0  0  0  0  0  0  0  0
   16.5730   38.5531   -7.4258 H   0  0  0  0  0  0  0  0  0  0  0  0
   17.3286   39.8181   -8.3488 H   0  0  0  0  0  0  0  0  0  0  0  0
   17.1126   38.2930  -10.4403 H   0  0  0  0  0  0  0  0  0  0  0  0
   16.0830   37.2797   -9.4624 H   0  0  0  0  0  0  0  0  0  0  0  0
   14.4739   38.9777   -9.2981 H   0  0  0  0  0  0  0  0  0  0  0  0
   17.3624   40.2458  -11.3088 H   0  0  0  0  0  0  0  0  0  0  0  0
   15.8979   44.2961  -11.0840 H   0  0  0  0  0  0  0  0  0  0  0  0
   13.9391   43.5155   -9.7775 H   0  0  0  0  0  0  0  0  0  0  0  0
   13.6657   41.1229   -9.2441 H   0  0  0  0  0  0  0  0  0  0  0  0
   19.8721   43.1002  -12.3380 H   0  0  0  0  0  0  0  0  0  0  0  0
   21.8199   42.6367  -10.8639 H   0  0  0  0  0  0  0  0  0  0  0  0
   21.2411   41.2716  -11.7363 H   0  0  0  0  0  0  0  0  0  0  0  0
   21.3769   43.4319   -8.8817 H   0  0  0  0  0  0  0  0  0  0  0  0
   18.4559   41.6998   -8.2005 H   0  0  0  0  0  0  0  0  0  0  0  0
   20.0292   42.0340   -7.5150 H   0  0  0  0  0  0  0  0  0  0  0  0
   18.0386   42.7306   -6.3049 H   0  0  0  0  0  0  0  0  0  0  0  0
   19.2610   44.0839   -5.1972 H   0  0  0  0  0  0  0  0  0  0  0  0
   20.4023   44.0685   -6.4925 H   0  0  0  0  0  0  0  0  0  0  0  0
   18.0151   45.7016   -8.5800 H   0  0  0  0  0  0  0  0  0  0  0  0
   19.2001   48.6757   -5.8867 H   0  0  0  0  0  0  0  0  0  0  0  0
   18.9484   50.1635   -9.7595 H   0  0  0  0  0  0  0  0  0  0  0  0
   19.7532   48.5984   -9.7202 H   0  0  0  0  0  0  0  0  0  0  0  0
   19.9404   49.7140   -8.3759 H   0  0  0  0  0  0  0  0  0  0  0  0
   17.9877   50.1604   -6.8396 H   0  0  0  0  0  0  0  0  0  0  0  0
   16.4582   49.3651   -7.0408 H   0  0  0  0  0  0  0  0  0  0  0  0
   16.9438   50.6178   -8.1924 H   0  0  0  0  0  0  0  0  0  0  0  0
   16.6770   49.0439  -10.1434 H   0  0  0  0  0  0  0  0  0  0  0  0
   16.1445   47.7425   -9.0880 H   0  0  0  0  0  0  0  0  0  0  0  0
   17.4955   47.4920  -10.1798 H   0  0  0  0  0  0  0  0  0  0  0  0
  1  2  1  0  0  0  0
  1 39  1  0  0  0  0
  1 40  1  0  0  0  0
  1 41  1  0  0  0  0
  2 36  1  1  0  0  0
  2 21  1  0  0  0  0
  2  3  1  0  0  0  0
  3  4  1  0  0  0  0
  3 42  1  0  0  0  0
  3 43  1  0  0  0  0
  4  5  1  0  0  0  0
  4 44  1  0  0  0  0
  4 45  1  0  0  0  0
  5  6  1  0  0  0  0
  5 46  1  0  0  0  0
  5 47  1  0  0  0  0
  6  7  1  0  0  0  0
  6 48  1  0  0  0  0
  6 49  1  0  0  0  0
  7  8  1  0  0  0  0
  7 50  1  0  0  0  0
  7 51  1  0  0  0  0
  8  9  1  0  0  0  0
  8 52  1  0  0  0  0
  8 53  1  0  0  0  0
  9 10  1  0  0  0  0
  9 54  1  0  0  0  0
  9 55  1  0  0  0  0
 10 11  1  0  0  0  0
 10 56  1  0  0  0  0
 11 16  1  0  0  0  0
 11 12  2  0  0  0  0
 12 13  1  0  0  0  0
 12 57  1  0  0  0  0
 13 14  2  0  0  0  0
 13 17  1  0  0  0  0
 14 15  1  0  0  0  0
 14 58  1  0  0  0  0
 15 16  2  0  0  0  0
 15 59  1  0  0  0  0
 16 60  1  0  0  0  0
 17 18  2  0  0  0  0
 17 19  1  0  0  0  0
 19 20  1  0  0  0  0
 19 61  1  0  0  0  0
 20 37  1  1  0  0  0
 20 21  1  0  0  0  0
 20 22  1  0  0  0  0
 21 62  1  0  0  0  0
 21 63  1  0  0  0  0
 22 38  1  6  0  0  0
 22 23  1  0  0  0  0
 22 24  1  0  0  0  0
 23 64  1  0  0  0  0
 24 25  1  0  0  0  0
 24 65  1  0  0  0  0
 24 66  1  0  0  0  0
 25 26  1  0  0  0  0
 25 67  1  0  0  0  0
 26 27  1  0  0  0  0
 26 68  1  0  0  0  0
 26 69  1  0  0  0  0
 27 31  2  0  0  0  0
 27 28  1  0  0  0  0
 28 29  2  0  0  0  0
 28 70  1  0  0  0  0
 29 30  1  0  0  0  0
 29 32  1  0  0  0  0
 30 31  1  0  0  0  0
 30 71  1  0  0  0  0
 32 33  1  0  0  0  0
 32 34  1  0  0  0  0
 32 35  1  0  0  0  0
 33 72  1  0  0  0  0
 33 73  1  0  0  0  0
 33 74  1  0  0  0  0
 34 75  1  0  0  0  0
 34 76  1  0  0  0  0
 34 77  1  0  0  0  0
 35 78  1  0  0  0  0
 35 79  1  0  0  0  0
 35 80  1  0  0  0  0
M  END
>  <s_m_source_file>
BACE_58.smi

>  <i_m_source_file_index>
1

>  <i_lp_mmshare_version>
42013

>  <i_f3d_flags>
0

>  <s_epik_input>
W05IXTFbQ0gyXVtDSDJdW0NIMl1bQ0gyXVtDSDJdW0NIMl1bQ0gyXVtDQEBIXShbQ0gzXSlbQ0gyXVtDQEhdKFtOSF1DKD1PKWMoW2NIXWMxMilbY0hdW2NIXVtjSF0yKVtDQEhdKFtPSF0pW0NIMl1bTkhdW0NIMl1jM1tjSF1jKFtuSF1uMylDKFtDSDNdKShbQ0gzXSlbQ0gzXQ==

>  <s_epik_cmdline>
J2VwaWtfcHl0aG9uJywgJy1waCcsICc3LjAnLCAnLXRuJywgJzgnLCAnLW1hJywgJzIwMCcsICctaW1hZScsICc8aW5maWxlLm1hZT4nLCAnLW9tYWUnLCAnPG91dGZpbGUubWFlPic=

>  <r_lp_tautomer_probability>
0.5

>  <r_epik_Ionization_Penalty>
1.4128

>  <r_epik_Ionization_Penalty_Charging>
0.0000

>  <r_epik_Ionization_Penalty_Neutral>
1.4128

>  <r_epik_State_Penalty>
1.7347

>  <r_epik_Charging_Adjusted_Penalty>
1.73473

>  <i_epik_Tot_Q>
0

>  <i_epik_Tot_abs_Q>
0

>  <s_lp_Force_Field>
OPLS_2005

>  <r_lp_Energy>
41.8679

>  <b_lp_Chiralities_Consistent>
1

>  <s_lp_Variant>
BACE_58.smi:1-4

>  <chiral flag>
1

>  <version>
0

>  <s_i_glide_gridfile>
second_dock_grid_2

>  <i_i_glide_lignum>
115

>  <i_i_glide_rotatable_bonds>
7

>  <r_i_docking_score>
-3.62268

>  <r_i_glide_ligand_efficiency>
-0.103505

>  <r_i_glide_ligand_efficiency_sa>
-0.338572

>  <r_i_glide_ligand_efficiency_ln>
-0.795258

>  <r_glide_XP_GScore>
-5.35738

>  <r_i_glide_gscore>
-5.35738

>  <r_i_glide_evdw>
-38.7911

>  <r_i_glide_ecoul>
-11.6071

>  <r_i_glide_energy>
-50.3981

>  <r_i_glide_einternal>
7.13601

>  <r_i_glide_emodel>
-67.9549

>  <r_glide_XP_HBond>
-1.58217

>  <i_i_glide_confnum>
1

>  <i_i_glide_posenum>
6

>  <r_i_glide_eff_state_penalty>
1.7347

>  <i_glide_XP_PoseRank>
1

$$$$
