BACE_45.smi:1
 OpenBabel09291822493D
Structure written by MMmdl.
 82 84  0  0  1  0  0  0  0  0999 V2000
   31.0265   44.2945   -7.9610 C   0  0  0  0  0  0  0  0  0  0  0  0
   30.8035   44.7461   -9.4127 C   0  0  0  0  0  0  0  0  0  0  0  0
   30.1320   46.1257   -9.4851 C   0  0  0  0  0  0  0  0  0  0  0  0
   30.0322   43.7031  -10.2101 C   0  0  0  0  0  0  0  0  0  0  0  0
   30.6515   43.0413  -11.2919 C   0  0  0  0  0  0  0  0  0  0  0  0
   29.9449   42.0702  -12.0273 C   0  0  0  0  0  0  0  0  0  0  0  0
   28.6192   41.7500  -11.6770 C   0  0  0  0  0  0  0  0  0  0  0  0
   27.9910   42.4049  -10.5959 C   0  0  0  0  0  0  0  0  0  0  0  0
   26.5798   42.0299  -10.1884 C   0  0  0  0  0  0  0  0  0  0  0  0
   25.6027   42.3766  -11.2398 N   0  3  0  0  0  0  0  0  0  0  0  0
   24.1735   42.3757  -10.8361 C   0  0  0  0  0  0  0  0  0  0  0  0
   23.6771   41.0076  -10.2963 C   0  0  1  0  0  0  0  0  0  0  0  0
   24.1067   40.9497   -8.9567 O   0  0  0  0  0  0  0  0  0  0  0  0
   22.1341   40.7934  -10.3181 C   0  0  2  0  0  0  0  0  0  0  0  0
   21.6984   39.3676   -9.8764 C   0  0  0  0  0  0  0  0  0  0  0  0
   21.3368   39.3082   -8.4042 C   0  0  0  0  0  0  0  0  0  0  0  0
   22.4550   38.9507   -7.4537 C   0  0  0  0  0  0  0  0  0  0  0  0
   20.1026   39.6266   -7.9777 C   0  0  0  0  0  0  0  0  0  0  0  0
   19.6594   39.7789   -6.5415 C   0  0  0  0  0  0  0  0  0  0  0  0
   18.5909   38.7723   -6.1075 C   0  0  0  0  0  0  0  0  0  0  0  0
   17.2208   38.9470   -6.7889 C   0  0  0  0  0  0  0  0  0  0  0  0
   17.0381   38.0662   -8.0399 C   0  0  0  0  0  0  0  0  0  0  0  0
   15.6066   38.0776   -8.6035 C   0  0  0  0  0  0  0  0  0  0  0  0
   15.1460   39.4303   -9.1771 C   0  0  0  0  0  0  0  0  0  0  0  0
   15.9063   39.8074  -10.3654 N   0  0  0  0  0  0  0  0  0  0  0  0
   17.0271   40.6442  -10.2552 C   0  0  0  0  0  0  0  0  0  0  0  0
   18.0929   40.5509  -11.1762 C   0  0  0  0  0  0  0  0  0  0  0  0
   19.2242   41.3866  -11.0384 C   0  0  0  0  0  0  0  0  0  0  0  0
   19.2380   42.3455   -9.9984 C   0  0  0  0  0  0  0  0  0  0  0  0
   18.1562   42.3933   -9.0939 C   0  0  0  0  0  0  0  0  0  0  0  0
   18.1277   43.3463   -7.9185 C   0  0  0  0  0  0  0  0  0  0  0  0
   17.1066   41.5593   -9.2620 N   0  3  0  0  0  0  0  0  0  0  0  0
   20.3344   41.2822  -12.0472 C   0  0  0  0  0  0  0  0  0  0  0  0
   20.0583   41.3498  -13.2396 O   0  0  0  0  0  0  0  0  0  0  0  0
   21.6041   41.0654  -11.6550 N   0  0  0  0  0  0  0  0  0  0  0  0
   28.7001   43.3856   -9.8710 C   0  0  0  0  0  0  0  0  0  0  0  0
   24.1534   40.1946  -10.8396 H   0  0  0  0  0  0  0  0  0  0  0  0
   21.7064   41.5301   -9.6370 H   0  0  0  0  0  0  0  0  0  0  0  0
   31.5560   43.3409   -7.9210 H   0  0  0  0  0  0  0  0  0  0  0  0
   30.0837   44.1727   -7.4260 H   0  0  0  0  0  0  0  0  0  0  0  0
   31.6241   45.0220   -7.4112 H   0  0  0  0  0  0  0  0  0  0  0  0
   31.7902   44.8484   -9.8684 H   0  0  0  0  0  0  0  0  0  0  0  0
   30.0278   46.4541  -10.5191 H   0  0  0  0  0  0  0  0  0  0  0  0
   30.7202   46.8764   -8.9587 H   0  0  0  0  0  0  0  0  0  0  0  0
   29.1376   46.1146   -9.0382 H   0  0  0  0  0  0  0  0  0  0  0  0
   31.6705   43.2712  -11.5657 H   0  0  0  0  0  0  0  0  0  0  0  0
   30.4209   41.5598  -12.8505 H   0  0  0  0  0  0  0  0  0  0  0  0
   28.0995   40.9778  -12.2264 H   0  0  0  0  0  0  0  0  0  0  0  0
   26.5460   40.9590   -9.9837 H   0  0  0  0  0  0  0  0  0  0  0  0
   26.3177   42.5509   -9.2678 H   0  0  0  0  0  0  0  0  0  0  0  0
   25.8313   43.3015  -11.5712 H   0  0  0  0  0  0  0  0  0  0  0  0
   23.9955   43.1672  -10.1089 H   0  0  0  0  0  0  0  0  0  0  0  0
   23.6204   42.6603  -11.7305 H   0  0  0  0  0  0  0  0  0  0  0  0
   24.0186   40.0519   -8.6608 H   0  0  0  0  0  0  0  0  0  0  0  0
   20.8134   39.0434  -10.4224 H   0  0  0  0  0  0  0  0  0  0  0  0
   22.4600   38.6257  -10.1210 H   0  0  0  0  0  0  0  0  0  0  0  0
   23.2839   38.5504   -8.0291 H   0  0  0  0  0  0  0  0  0  0  0  0
   22.1206   38.1931   -6.7449 H   0  0  0  0  0  0  0  0  0  0  0  0
   22.7928   39.8254   -6.8959 H   0  0  0  0  0  0  0  0  0  0  0  0
   19.3523   39.8683   -8.7083 H   0  0  0  0  0  0  0  0  0  0  0  0
   20.5092   39.7173   -5.8608 H   0  0  0  0  0  0  0  0  0  0  0  0
   19.2607   40.7885   -6.4402 H   0  0  0  0  0  0  0  0  0  0  0  0
   18.9516   37.7509   -6.2207 H   0  0  0  0  0  0  0  0  0  0  0  0
   18.4599   38.9200   -5.0371 H   0  0  0  0  0  0  0  0  0  0  0  0
   16.4559   38.6680   -6.0661 H   0  0  0  0  0  0  0  0  0  0  0  0
   17.0372   39.9977   -7.0063 H   0  0  0  0  0  0  0  0  0  0  0  0
   17.7553   38.3244   -8.8166 H   0  0  0  0  0  0  0  0  0  0  0  0
   17.2684   37.0356   -7.7651 H   0  0  0  0  0  0  0  0  0  0  0  0
   15.5270   37.3153   -9.3796 H   0  0  0  0  0  0  0  0  0  0  0  0
   14.9228   37.7599   -7.8136 H   0  0  0  0  0  0  0  0  0  0  0  0
   14.1020   39.3403   -9.4773 H   0  0  0  0  0  0  0  0  0  0  0  0
   15.1574   40.1995   -8.4082 H   0  0  0  0  0  0  0  0  0  0  0  0
   15.9438   39.1057  -11.0905 H   0  0  0  0  0  0  0  0  0  0  0  0
   18.0606   39.8260  -11.9777 H   0  0  0  0  0  0  0  0  0  0  0  0
   20.0698   43.0234   -9.8848 H   0  0  0  0  0  0  0  0  0  0  0  0
   19.1356   43.5247   -7.5437 H   0  0  0  0  0  0  0  0  0  0  0  0
   17.5364   42.9396   -7.0970 H   0  0  0  0  0  0  0  0  0  0  0  0
   17.6934   44.3012   -8.2129 H   0  0  0  0  0  0  0  0  0  0  0  0
   22.2765   40.9655  -12.4074 H   0  0  0  0  0  0  0  0  0  0  0  0
   28.2273   43.8822   -9.0377 H   0  0  0  0  0  0  0  0  0  0  0  0
   25.7158   41.7303  -12.0055 H   0  0  0  0  0  0  0  0  0  0  0  0
   16.3395   41.6139   -8.5881 H   0  0  0  0  0  0  0  0  0  0  0  0
  1  2  1  0  0  0  0
  1 39  1  0  0  0  0
  1 40  1  0  0  0  0
  1 41  1  0  0  0  0
  2  3  1  0  0  0  0
  2  4  1  0  0  0  0
  2 42  1  0  0  0  0
  3 43  1  0  0  0  0
  3 44  1  0  0  0  0
  3 45  1  0  0  0  0
  4 36  1  0  0  0  0
  4  5  2  0  0  0  0
  5  6  1  0  0  0  0
  5 46  1  0  0  0  0
  6  7  2  0  0  0  0
  6 47  1  0  0  0  0
  7  8  1  0  0  0  0
  7 48  1  0  0  0  0
  8  9  1  0  0  0  0
  8 36  2  0  0  0  0
  9 10  1  0  0  0  0
  9 49  1  0  0  0  0
  9 50  1  0  0  0  0
 10 11  1  0  0  0  0
 10 51  1  0  0  0  0
 10 81  1  0  0  0  0
 11 12  1  0  0  0  0
 11 52  1  0  0  0  0
 11 53  1  0  0  0  0
 12 37  1  6  0  0  0
 12 13  1  0  0  0  0
 12 14  1  0  0  0  0
 13 54  1  0  0  0  0
 14 38  1  1  0  0  0
 14 35  1  0  0  0  0
 14 15  1  0  0  0  0
 15 16  1  0  0  0  0
 15 55  1  0  0  0  0
 15 56  1  0  0  0  0
 16 17  1  0  0  0  0
 16 18  2  0  0  0  0
 17 57  1  0  0  0  0
 17 58  1  0  0  0  0
 17 59  1  0  0  0  0
 18 19  1  0  0  0  0
 18 60  1  0  0  0  0
 19 20  1  0  0  0  0
 19 61  1  0  0  0  0
 19 62  1  0  0  0  0
 20 21  1  0  0  0  0
 20 63  1  0  0  0  0
 20 64  1  0  0  0  0
 21 22  1  0  0  0  0
 21 65  1  0  0  0  0
 21 66  1  0  0  0  0
 22 23  1  0  0  0  0
 22 67  1  0  0  0  0
 22 68  1  0  0  0  0
 23 24  1  0  0  0  0
 23 69  1  0  0  0  0
 23 70  1  0  0  0  0
 24 25  1  0  0  0  0
 24 71  1  0  0  0  0
 24 72  1  0  0  0  0
 25 26  1  0  0  0  0
 25 73  1  0  0  0  0
 26 32  1  0  0  0  0
 26 27  2  0  0  0  0
 27 28  1  0  0  0  0
 27 74  1  0  0  0  0
 28 29  2  0  0  0  0
 28 33  1  0  0  0  0
 29 30  1  0  0  0  0
 29 75  1  0  0  0  0
 30 31  1  0  0  0  0
 30 32  2  0  0  0  0
 31 76  1  0  0  0  0
 31 77  1  0  0  0  0
 31 78  1  0  0  0  0
 32 82  1  0  0  0  0
 33 34  2  0  0  0  0
 33 35  1  0  0  0  0
 35 79  1  0  0  0  0
 36 80  1  0  0  0  0
M  CHG  2  10   1  32   1
M  END
>  <s_m_source_file>
BACE_45.smi

>  <i_m_source_file_index>
1

>  <i_lp_mmshare_version>
42013

>  <i_f3d_flags>
0

>  <s_epik_input>
W0NIM11bQ0hdKFtDSDNdKWMxW2NIXVtjSF1bY0hdYyhbY0hdMSlbQ0gyXVtOSF1bQ0gyXVtDQEBIXShbT0hdKVtDQEBIXShbTkhdQyg9TyljKFtjSF1jMjMpW2NIXWMobjMpW0NIM10pW0NIMl0vQyhbQ0gzXSk9W0NIXS9bQ0gyXVtDSDJdW0NIMl1bQ0gyXVtDSDJdW0NIMl1bTkhdMg==

>  <s_epik_cmdline>
J2VwaWtfcHl0aG9uJywgJy1waCcsICc3LjAnLCAnLXRuJywgJzgnLCAnLW1hJywgJzIwMCcsICctaW1hZScsICc8aW5maWxlLm1hZT4nLCAnLW9tYWUnLCAnPG91dGZpbGUubWFlPic=

>  <r_lp_tautomer_probability>
0.999994

>  <r_epik_Ionization_Penalty>
2.4053

>  <r_epik_Ionization_Penalty_Charging>
2.4053

>  <r_epik_Ionization_Penalty_Neutral>
0.0000

>  <r_epik_State_Penalty>
2.4952

>  <r_epik_Charging_Adjusted_Penalty>
4.90049

>  <i_epik_Tot_Q>
2

>  <i_epik_Tot_abs_Q>
2

>  <s_lp_Force_Field>
OPLS_2005

>  <r_lp_Energy>
38.0733

>  <b_lp_Chiralities_Consistent>
1

>  <s_lp_Variant>
BACE_45.smi:1-3

>  <chiral flag>
1

>  <version>
0

>  <s_i_glide_gridfile>
second_dock_grid_2

>  <i_i_glide_lignum>
85

>  <i_i_glide_rotatable_bonds>
7

>  <r_i_docking_score>
-2.65298

>  <r_i_glide_ligand_efficiency>
-0.0736938

>  <r_i_glide_ligand_efficiency_sa>
-0.243331

>  <r_i_glide_ligand_efficiency_ln>
-0.578808

>  <r_glide_XP_GScore>
-5.14818

>  <r_i_glide_gscore>
-5.14818

>  <r_i_glide_evdw>
-39.111

>  <r_i_glide_ecoul>
-14.6892

>  <r_i_glide_energy>
-53.8002

>  <r_i_glide_einternal>
1.18159

>  <r_i_glide_emodel>
-72.7363

>  <r_glide_XP_HBond>
-1.32627

>  <i_i_glide_confnum>
1

>  <i_i_glide_posenum>
6

>  <r_i_glide_eff_state_penalty>
2.4952

>  <i_glide_XP_PoseRank>
1

$$$$
