BACE_54.smi:1
 OpenBabel09291822493D
Structure written by MMmdl.
 77 79  0  0  1  0  0  0  0  0999 V2000
   22.8600   43.0190   -3.9955 C   0  0  0  0  0  0  0  0  0  0  0  0
   21.4840   42.5144   -4.4727 C   0  0  0  0  0  0  0  0  0  0  0  0
   20.6768   42.0690   -3.2407 C   0  0  0  0  0  0  0  0  0  0  0  0
   21.6113   41.4463   -5.5702 C   0  0  0  0  0  0  0  0  0  0  0  0
   20.9125   40.2174   -5.5173 C   0  0  0  0  0  0  0  0  0  0  0  0
   21.1252   39.2299   -6.4992 C   0  0  0  0  0  0  0  0  0  0  0  0
   22.0608   39.4387   -7.5274 C   0  0  0  0  0  0  0  0  0  0  0  0
   22.7344   40.6735   -7.6193 C   0  0  0  0  0  0  0  0  0  0  0  0
   23.7895   40.9184   -8.6873 C   0  0  0  0  0  0  0  0  0  0  0  0
   23.3823   40.5501  -10.0586 N   0  3  0  0  0  0  0  0  0  0  0  0
   22.0712   41.0334  -10.5334 C   0  0  0  0  0  0  0  0  0  0  0  0
   21.9373   42.5744  -10.4749 C   0  0  1  0  0  0  0  0  0  0  0  0
   22.9767   43.1039  -11.2807 O   0  0  0  0  0  0  0  0  0  0  0  0
   20.5832   43.1734  -10.9568 C   0  0  2  0  0  0  0  0  0  0  0  0
   20.3881   44.6017  -10.3907 C   0  0  0  0  0  0  0  0  0  0  0  0
   19.3410   45.5031  -11.0933 C   0  0  2  0  0  0  0  0  0  0  0  0
   19.4888   46.9625  -10.6308 C   0  0  0  0  0  0  0  0  0  0  0  0
   17.8709   45.0372  -10.9798 C   0  0  0  0  0  0  0  0  0  0  0  0
   17.3467   44.8303   -9.5482 C   0  0  0  0  0  0  0  0  0  0  0  0
   16.0022   44.3895   -9.6406 O   0  0  0  0  0  0  0  0  0  0  0  0
   15.5179   43.8057   -8.4411 C   0  0  0  0  0  0  0  0  0  0  0  0
   14.0952   43.2916   -8.6918 C   0  0  0  0  0  0  0  0  0  0  0  0
   13.9872   42.1662   -9.7429 C   0  0  0  0  0  0  0  0  0  0  0  0
   14.4603   40.9148   -9.2494 O   0  0  0  0  0  0  0  0  0  0  0  0
   15.6839   40.4224   -9.6441 C   0  0  0  0  0  0  0  0  0  0  0  0
   16.6753   41.1686  -10.3214 C   0  0  0  0  0  0  0  0  0  0  0  0
   17.8829   40.5344  -10.6674 C   0  0  0  0  0  0  0  0  0  0  0  0
   18.0615   39.1787  -10.3314 C   0  0  0  0  0  0  0  0  0  0  0  0
   17.0228   38.5235   -9.6402 C   0  0  0  0  0  0  0  0  0  0  0  0
   17.1473   37.0721   -9.2270 C   0  0  0  0  0  0  0  0  0  0  0  0
   15.8630   39.1271   -9.3134 N   0  0  0  0  0  0  0  0  0  0  0  0
   18.9719   41.3043  -11.3387 C   0  0  0  0  0  0  0  0  0  0  0  0
   19.4177   40.9782  -12.4394 O   0  0  0  0  0  0  0  0  0  0  0  0
   19.4485   42.3215  -10.6048 N   0  0  0  0  0  0  0  0  0  0  0  0
   22.4695   41.6798   -6.6663 C   0  0  0  0  0  0  0  0  0  0  0  0
   22.0946   42.9026   -9.4459 H   0  0  0  0  0  0  0  0  0  0  0  0
   20.6108   43.2461  -12.0399 H   0  0  0  0  0  0  0  0  0  0  0  0
   19.5842   45.4992  -12.1563 H   0  0  0  0  0  0  0  0  0  0  0  0
   23.4257   43.5123   -4.7846 H   0  0  0  0  0  0  0  0  0  0  0  0
   23.4689   42.1983   -3.6164 H   0  0  0  0  0  0  0  0  0  0  0  0
   22.7535   43.7488   -3.1928 H   0  0  0  0  0  0  0  0  0  0  0  0
   20.9574   43.3584   -4.9195 H   0  0  0  0  0  0  0  0  0  0  0  0
   19.6600   41.8018   -3.5086 H   0  0  0  0  0  0  0  0  0  0  0  0
   20.6073   42.8691   -2.5035 H   0  0  0  0  0  0  0  0  0  0  0  0
   21.1328   41.2082   -2.7506 H   0  0  0  0  0  0  0  0  0  0  0  0
   20.2119   40.0030   -4.7258 H   0  0  0  0  0  0  0  0  0  0  0  0
   20.5904   38.2927   -6.4402 H   0  0  0  0  0  0  0  0  0  0  0  0
   22.2482   38.6510   -8.2419 H   0  0  0  0  0  0  0  0  0  0  0  0
   24.1019   41.9640   -8.6774 H   0  0  0  0  0  0  0  0  0  0  0  0
   24.6723   40.3357   -8.4405 H   0  0  0  0  0  0  0  0  0  0  0  0
   24.0796   40.9079  -10.6953 H   0  0  0  0  0  0  0  0  0  0  0  0
   21.9511   40.6810  -11.5575 H   0  0  0  0  0  0  0  0  0  0  0  0
   21.2950   40.5469   -9.9431 H   0  0  0  0  0  0  0  0  0  0  0  0
   22.8899   42.7654  -12.1631 H   0  0  0  0  0  0  0  0  0  0  0  0
   20.1962   44.5585   -9.3181 H   0  0  0  0  0  0  0  0  0  0  0  0
   21.3475   45.1144  -10.4771 H   0  0  0  0  0  0  0  0  0  0  0  0
   19.3207   47.0622   -9.5582 H   0  0  0  0  0  0  0  0  0  0  0  0
   18.7805   47.6152  -11.1422 H   0  0  0  0  0  0  0  0  0  0  0  0
   20.4888   47.3442  -10.8411 H   0  0  0  0  0  0  0  0  0  0  0  0
   17.2297   45.7609  -11.4838 H   0  0  0  0  0  0  0  0  0  0  0  0
   17.7434   44.1137  -11.5432 H   0  0  0  0  0  0  0  0  0  0  0  0
   17.9510   44.0840   -9.0322 H   0  0  0  0  0  0  0  0  0  0  0  0
   17.3889   45.7497   -8.9645 H   0  0  0  0  0  0  0  0  0  0  0  0
   16.1590   42.9872   -8.1115 H   0  0  0  0  0  0  0  0  0  0  0  0
   15.5148   44.5528   -7.6468 H   0  0  0  0  0  0  0  0  0  0  0  0
   13.6658   42.9498   -7.7501 H   0  0  0  0  0  0  0  0  0  0  0  0
   13.4765   44.1295   -9.0115 H   0  0  0  0  0  0  0  0  0  0  0  0
   12.9294   42.0142   -9.9583 H   0  0  0  0  0  0  0  0  0  0  0  0
   14.4167   42.4550  -10.7006 H   0  0  0  0  0  0  0  0  0  0  0  0
   16.5344   42.2057  -10.5694 H   0  0  0  0  0  0  0  0  0  0  0  0
   18.9739   38.6567  -10.5823 H   0  0  0  0  0  0  0  0  0  0  0  0
   18.1000   36.6512   -9.5494 H   0  0  0  0  0  0  0  0  0  0  0  0
   16.3454   36.4841   -9.6728 H   0  0  0  0  0  0  0  0  0  0  0  0
   17.0813   36.9797   -8.1411 H   0  0  0  0  0  0  0  0  0  0  0  0
   19.0096   42.4814   -9.7086 H   0  0  0  0  0  0  0  0  0  0  0  0
   22.9953   42.6203   -6.7420 H   0  0  0  0  0  0  0  0  0  0  0  0
   23.4160   39.5390  -10.1124 H   0  0  0  0  0  0  0  0  0  0  0  0
  1  2  1  0  0  0  0
  1 39  1  0  0  0  0
  1 40  1  0  0  0  0
  1 41  1  0  0  0  0
  2  3  1  0  0  0  0
  2  4  1  0  0  0  0
  2 42  1  0  0  0  0
  3 43  1  0  0  0  0
  3 44  1  0  0  0  0
  3 45  1  0  0  0  0
  4 35  1  0  0  0  0
  4  5  2  0  0  0  0
  5  6  1  0  0  0  0
  5 46  1  0  0  0  0
  6  7  2  0  0  0  0
  6 47  1  0  0  0  0
  7  8  1  0  0  0  0
  7 48  1  0  0  0  0
  8  9  1  0  0  0  0
  8 35  2  0  0  0  0
  9 10  1  0  0  0  0
  9 49  1  0  0  0  0
  9 50  1  0  0  0  0
 10 11  1  0  0  0  0
 10 51  1  0  0  0  0
 10 77  1  0  0  0  0
 11 12  1  0  0  0  0
 11 52  1  0  0  0  0
 11 53  1  0  0  0  0
 12 36  1  1  0  0  0
 12 13  1  0  0  0  0
 12 14  1  0  0  0  0
 13 54  1  0  0  0  0
 14 37  1  6  0  0  0
 14 34  1  0  0  0  0
 14 15  1  0  0  0  0
 15 16  1  0  0  0  0
 15 55  1  0  0  0  0
 15 56  1  0  0  0  0
 16 38  1  6  0  0  0
 16 17  1  0  0  0  0
 16 18  1  0  0  0  0
 17 57  1  0  0  0  0
 17 58  1  0  0  0  0
 17 59  1  0  0  0  0
 18 19  1  0  0  0  0
 18 60  1  0  0  0  0
 18 61  1  0  0  0  0
 19 20  1  0  0  0  0
 19 62  1  0  0  0  0
 19 63  1  0  0  0  0
 20 21  1  0  0  0  0
 21 22  1  0  0  0  0
 21 64  1  0  0  0  0
 21 65  1  0  0  0  0
 22 23  1  0  0  0  0
 22 66  1  0  0  0  0
 22 67  1  0  0  0  0
 23 24  1  0  0  0  0
 23 68  1  0  0  0  0
 23 69  1  0  0  0  0
 24 25  1  0  0  0  0
 25 31  1  0  0  0  0
 25 26  2  0  0  0  0
 26 27  1  0  0  0  0
 26 70  1  0  0  0  0
 27 28  2  0  0  0  0
 27 32  1  0  0  0  0
 28 29  1  0  0  0  0
 28 71  1  0  0  0  0
 29 30  1  0  0  0  0
 29 31  2  0  0  0  0
 30 72  1  0  0  0  0
 30 73  1  0  0  0  0
 30 74  1  0  0  0  0
 32 33  2  0  0  0  0
 32 34  1  0  0  0  0
 34 75  1  0  0  0  0
 35 76  1  0  0  0  0
M  CHG  1  10   1
M  END
>  <s_m_source_file>
BACE_54.smi

>  <i_m_source_file_index>
1

>  <i_lp_mmshare_version>
42013

>  <i_f3d_flags>
0

>  <s_epik_input>
W0NIM11bQ0hdKFtDSDNdKWMxW2NIXVtjSF1bY0hdYyhbY0hdMSlbQ0gyXVtOSF1bQ0gyXVtDQEBIXShbT0hdKVtDQEBIXShbTkhdQyg9TyljKFtjSF1jMjMpW2NIXWMobjMpW0NIM10pW0NIMl1bQ0BIXShbQ0gzXSlbQ0gyXVtDSDJdT1tDSDJdW0NIMl1bQ0gyXU8y

>  <s_epik_cmdline>
J2VwaWtfcHl0aG9uJywgJy1waCcsICc3LjAnLCAnLXRuJywgJzgnLCAnLW1hJywgJzIwMCcsICctaW1hZScsICc8aW5maWxlLm1hZT4nLCAnLW9tYWUnLCAnPG91dGZpbGUubWFlPic=

>  <r_lp_tautomer_probability>
1

>  <r_epik_Ionization_Penalty>
0.0176

>  <r_epik_Ionization_Penalty_Charging>
0.0176

>  <r_epik_Ionization_Penalty_Neutral>
0.0000

>  <r_epik_State_Penalty>
0.0139

>  <r_epik_Charging_Adjusted_Penalty>
0.0314671

>  <i_epik_Tot_Q>
1

>  <i_epik_Tot_abs_Q>
1

>  <s_lp_Force_Field>
OPLS_2005

>  <r_lp_Energy>
26.044

>  <b_lp_Chiralities_Consistent>
1

>  <s_lp_Variant>
BACE_54.smi:1-1

>  <chiral flag>
1

>  <version>
0

>  <s_i_glide_gridfile>
second_dock_grid_2

>  <i_i_glide_lignum>
104

>  <i_i_glide_rotatable_bonds>
7

>  <r_i_docking_score>
-4.55936

>  <r_i_glide_ligand_efficiency>
-0.130267

>  <r_i_glide_ligand_efficiency_sa>
-0.426113

>  <r_i_glide_ligand_efficiency_ln>
-1.00088

>  <r_glide_XP_GScore>
-4.57326

>  <r_i_glide_gscore>
-4.57326

>  <r_i_glide_evdw>
-37.7655

>  <r_i_glide_ecoul>
-5.03801

>  <r_i_glide_energy>
-42.8035

>  <r_i_glide_einternal>
4.67522

>  <r_i_glide_emodel>
-56.5879

>  <r_glide_XP_HBond>
-0.7

>  <i_i_glide_confnum>
1

>  <i_i_glide_posenum>
10

>  <r_i_glide_eff_state_penalty>
0.0139

>  <i_glide_XP_PoseRank>
1

$$$$
