BACE_78.smi:1
 OpenBabel09291822493D
Structure written by MMmdl.
 85 87  0  0  1  0  0  0  0  0999 V2000
   23.6488   46.1144   -6.0281 C   0  0  0  0  0  0  0  0  0  0  0  0
   23.9481   44.6312   -5.7449 C   0  0  2  0  0  0  0  0  0  0  0  0
   24.0906   43.7912   -7.0297 C   0  0  0  0  0  0  0  0  0  0  0  0
   25.3782   44.0537   -7.8365 C   0  0  0  0  0  0  0  0  0  0  0  0
   25.4243   43.2385   -9.1422 C   0  0  0  0  0  0  0  0  0  0  0  0
   24.4787   43.7901  -10.2241 C   0  0  0  0  0  0  0  0  0  0  0  0
   24.0424   42.7332  -11.2529 C   0  0  0  0  0  0  0  0  0  0  0  0
   22.8049   43.1386  -12.0814 C   0  0  0  0  0  0  0  0  0  0  0  0
   21.4670   42.9574  -11.3404 C   0  0  0  0  0  0  0  0  0  0  0  0
   21.3482   43.9825  -10.3696 O   0  0  0  0  0  0  0  0  0  0  0  0
   20.2938   43.9326   -9.4941 C   0  0  0  0  0  0  0  0  0  0  0  0
   20.4590   44.6222   -8.2811 C   0  0  0  0  0  0  0  0  0  0  0  0
   19.4497   44.6175   -7.2984 C   0  0  0  0  0  0  0  0  0  0  0  0
   18.2210   43.9838   -7.5694 C   0  0  0  0  0  0  0  0  0  0  0  0
   18.0352   43.3218   -8.7968 C   0  0  0  0  0  0  0  0  0  0  0  0
   19.0709   43.2699   -9.7491 C   0  0  0  0  0  0  0  0  0  0  0  0
   19.6586   45.3364   -6.0041 C   0  0  0  0  0  0  0  0  0  0  0  0
   18.8643   46.2018   -5.6402 O   0  0  0  0  0  0  0  0  0  0  0  0
   20.7115   44.9944   -5.2401 N   0  0  0  0  0  0  0  0  0  0  0  0
   21.4922   43.7535   -5.2425 C   0  0  1  0  0  0  0  0  0  0  0  0
   22.9462   43.9970   -4.7501 C   0  0  0  0  0  0  0  0  0  0  0  0
   20.7376   42.6860   -4.4020 C   0  0  2  0  0  0  0  0  0  0  0  0
   21.0472   42.8289   -3.0300 O   0  0  0  0  0  0  0  0  0  0  0  0
   21.0933   41.2435   -4.8122 C   0  0  0  0  0  0  0  0  0  0  0  0
   20.4599   40.9023   -6.1000 N   0  3  0  0  0  0  0  0  0  0  0  0
   20.7871   39.5650   -6.6225 C   0  0  0  0  0  0  0  0  0  0  0  0
   19.9456   39.2694   -7.8447 C   0  0  0  0  0  0  0  0  0  0  0  0
   18.6299   38.7775   -7.7084 C   0  0  0  0  0  0  0  0  0  0  0  0
   17.8654   38.5678   -8.8710 C   0  0  0  0  0  0  0  0  0  0  0  0
   16.4319   38.0655   -8.7722 C   0  0  0  0  0  0  0  0  0  0  0  0
   15.3464   39.1398   -8.4475 C   0  0  0  0  0  0  0  0  0  0  0  0
   14.8579   38.9567   -6.9994 C   0  0  0  0  0  0  0  0  0  0  0  0
   14.1509   38.9501   -9.3949 C   0  0  0  0  0  0  0  0  0  0  0  0
   15.8488   40.5864   -8.6014 C   0  0  0  0  0  0  0  0  0  0  0  0
   18.4597   38.8347  -10.1225 C   0  0  0  0  0  0  0  0  0  0  0  0
   19.7227   39.2885  -10.2630 N   0  0  0  0  0  0  0  0  0  0  0  0
   20.4454   39.4957   -9.1441 C   0  0  0  0  0  0  0  0  0  0  0  0
   24.9162   44.6058   -5.2427 H   0  0  0  0  0  0  0  0  0  0  0  0
   21.5462   43.3757   -6.2585 H   0  0  0  0  0  0  0  0  0  0  0  0
   19.6603   42.8174   -4.4996 H   0  0  0  0  0  0  0  0  0  0  0  0
   22.7299   46.2421   -6.5977 H   0  0  0  0  0  0  0  0  0  0  0  0
   24.4525   46.5793   -6.5982 H   0  0  0  0  0  0  0  0  0  0  0  0
   23.5484   46.6777   -5.1005 H   0  0  0  0  0  0  0  0  0  0  0  0
   24.0599   42.7327   -6.7752 H   0  0  0  0  0  0  0  0  0  0  0  0
   23.2173   43.9578   -7.6543 H   0  0  0  0  0  0  0  0  0  0  0  0
   25.4855   45.1129   -8.0716 H   0  0  0  0  0  0  0  0  0  0  0  0
   26.2400   43.7890   -7.2213 H   0  0  0  0  0  0  0  0  0  0  0  0
   26.4416   43.2202   -9.5363 H   0  0  0  0  0  0  0  0  0  0  0  0
   25.1764   42.2010   -8.9158 H   0  0  0  0  0  0  0  0  0  0  0  0
   23.6007   44.2083   -9.7468 H   0  0  0  0  0  0  0  0  0  0  0  0
   24.9494   44.6336  -10.7321 H   0  0  0  0  0  0  0  0  0  0  0  0
   24.8795   42.5458  -11.9273 H   0  0  0  0  0  0  0  0  0  0  0  0
   23.8381   41.7799  -10.7627 H   0  0  0  0  0  0  0  0  0  0  0  0
   22.9018   44.1649  -12.4370 H   0  0  0  0  0  0  0  0  0  0  0  0
   22.7754   42.5256  -12.9814 H   0  0  0  0  0  0  0  0  0  0  0  0
   20.6379   43.0302  -12.0398 H   0  0  0  0  0  0  0  0  0  0  0  0
   21.4184   41.9712  -10.8750 H   0  0  0  0  0  0  0  0  0  0  0  0
   21.3818   45.1511   -8.1025 H   0  0  0  0  0  0  0  0  0  0  0  0
   17.4201   43.9988   -6.8418 H   0  0  0  0  0  0  0  0  0  0  0  0
   17.0869   42.8582   -9.0112 H   0  0  0  0  0  0  0  0  0  0  0  0
   18.8950   42.7453  -10.6763 H   0  0  0  0  0  0  0  0  0  0  0  0
   20.8128   45.5289   -4.3834 H   0  0  0  0  0  0  0  0  0  0  0  0
   23.3771   43.0442   -4.4445 H   0  0  0  0  0  0  0  0  0  0  0  0
   22.9222   44.5917   -3.8361 H   0  0  0  0  0  0  0  0  0  0  0  0
   20.8580   43.7197   -2.7638 H   0  0  0  0  0  0  0  0  0  0  0  0
   22.1717   41.1030   -4.8726 H   0  0  0  0  0  0  0  0  0  0  0  0
   20.7223   40.5415   -4.0634 H   0  0  0  0  0  0  0  0  0  0  0  0
   19.4547   40.9503   -5.9526 H   0  0  0  0  0  0  0  0  0  0  0  0
   21.8502   39.5030   -6.8648 H   0  0  0  0  0  0  0  0  0  0  0  0
   20.5855   38.8122   -5.8632 H   0  0  0  0  0  0  0  0  0  0  0  0
   18.2041   38.5905   -6.7320 H   0  0  0  0  0  0  0  0  0  0  0  0
   16.2024   37.5779   -9.7206 H   0  0  0  0  0  0  0  0  0  0  0  0
   16.4046   37.2589   -8.0407 H   0  0  0  0  0  0  0  0  0  0  0  0
   14.0700   39.6662   -6.7425 H   0  0  0  0  0  0  0  0  0  0  0  0
   15.6677   39.0997   -6.2840 H   0  0  0  0  0  0  0  0  0  0  0  0
   14.4603   37.9551   -6.8400 H   0  0  0  0  0  0  0  0  0  0  0  0
   13.6890   37.9755   -9.2397 H   0  0  0  0  0  0  0  0  0  0  0  0
   14.4609   39.0262  -10.4376 H   0  0  0  0  0  0  0  0  0  0  0  0
   13.3743   39.6992   -9.2379 H   0  0  0  0  0  0  0  0  0  0  0  0
   15.0501   41.3026   -8.4057 H   0  0  0  0  0  0  0  0  0  0  0  0
   16.2137   40.7721   -9.6119 H   0  0  0  0  0  0  0  0  0  0  0  0
   16.6500   40.8095   -7.8970 H   0  0  0  0  0  0  0  0  0  0  0  0
   17.9055   38.6857  -11.0365 H   0  0  0  0  0  0  0  0  0  0  0  0
   21.4475   39.8716   -9.2923 H   0  0  0  0  0  0  0  0  0  0  0  0
   20.7112   41.5896   -6.7950 H   0  0  0  0  0  0  0  0  0  0  0  0
  1  2  1  0  0  0  0
  1 41  1  0  0  0  0
  1 42  1  0  0  0  0
  1 43  1  0  0  0  0
  2 38  1  1  0  0  0
  2 21  1  0  0  0  0
  2  3  1  0  0  0  0
  3  4  1  0  0  0  0
  3 44  1  0  0  0  0
  3 45  1  0  0  0  0
  4  5  1  0  0  0  0
  4 46  1  0  0  0  0
  4 47  1  0  0  0  0
  5  6  1  0  0  0  0
  5 48  1  0  0  0  0
  5 49  1  0  0  0  0
  6  7  1  0  0  0  0
  6 50  1  0  0  0  0
  6 51  1  0  0  0  0
  7  8  1  0  0  0  0
  7 52  1  0  0  0  0
  7 53  1  0  0  0  0
  8  9  1  0  0  0  0
  8 54  1  0  0  0  0
  8 55  1  0  0  0  0
  9 10  1  0  0  0  0
  9 56  1  0  0  0  0
  9 57  1  0  0  0  0
 10 11  1  0  0  0  0
 11 16  1  0  0  0  0
 11 12  2  0  0  0  0
 12 13  1  0  0  0  0
 12 58  1  0  0  0  0
 13 14  2  0  0  0  0
 13 17  1  0  0  0  0
 14 15  1  0  0  0  0
 14 59  1  0  0  0  0
 15 16  2  0  0  0  0
 15 60  1  0  0  0  0
 16 61  1  0  0  0  0
 17 18  2  0  0  0  0
 17 19  1  0  0  0  0
 19 20  1  0  0  0  0
 19 62  1  0  0  0  0
 20 39  1  6  0  0  0
 20 21  1  0  0  0  0
 20 22  1  0  0  0  0
 21 63  1  0  0  0  0
 21 64  1  0  0  0  0
 22 40  1  6  0  0  0
 22 23  1  0  0  0  0
 22 24  1  0  0  0  0
 23 65  1  0  0  0  0
 24 25  1  0  0  0  0
 24 66  1  0  0  0  0
 24 67  1  0  0  0  0
 25 26  1  0  0  0  0
 25 68  1  0  0  0  0
 25 85  1  0  0  0  0
 26 27  1  0  0  0  0
 26 69  1  0  0  0  0
 26 70  1  0  0  0  0
 27 37  1  0  0  0  0
 27 28  2  0  0  0  0
 28 29  1  0  0  0  0
 28 71  1  0  0  0  0
 29 30  1  0  0  0  0
 29 35  2  0  0  0  0
 30 31  1  0  0  0  0
 30 72  1  0  0  0  0
 30 73  1  0  0  0  0
 31 32  1  0  0  0  0
 31 33  1  0  0  0  0
 31 34  1  0  0  0  0
 32 74  1  0  0  0  0
 32 75  1  0  0  0  0
 32 76  1  0  0  0  0
 33 77  1  0  0  0  0
 33 78  1  0  0  0  0
 33 79  1  0  0  0  0
 34 80  1  0  0  0  0
 34 81  1  0  0  0  0
 34 82  1  0  0  0  0
 35 36  1  0  0  0  0
 35 83  1  0  0  0  0
 36 37  2  0  0  0  0
 37 84  1  0  0  0  0
M  CHG  1  25   1
M  END
>  <s_m_source_file>
BACE_78.smi

>  <i_m_source_file_index>
1

>  <i_lp_mmshare_version>
42013

>  <i_f3d_flags>
0

>  <s_epik_input>
TzFbQ0gyXVtDSDJdW0NIMl1bQ0gyXVtDSDJdW0NIMl1bQ0gyXVtDQEBIXShbQ0gzXSlbQ0gyXVtDQEhdKFtOSF1DKD1PKWMoW2NIXWMxMilbY0hdW2NIXVtjSF0yKVtDQEhdKFtPSF0pW0NIMl1bTkhdW0NIMl1jM1tjSF1jKFtDSDJdQyhbQ0gzXSkoW0NIM10pW0NIM10pW2NIXW5bY0hdMw==

>  <s_epik_cmdline>
J2VwaWtfcHl0aG9uJywgJy1waCcsICc3LjAnLCAnLXRuJywgJzgnLCAnLW1hJywgJzIwMCcsICctaW1hZScsICc8aW5maWxlLm1hZT4nLCAnLW9tYWUnLCAnPG91dGZpbGUubWFlPic=

>  <r_lp_tautomer_probability>
1

>  <r_epik_Ionization_Penalty>
0.0463

>  <r_epik_Ionization_Penalty_Charging>
0.0356

>  <r_epik_Ionization_Penalty_Neutral>
0.0108

>  <r_epik_State_Penalty>
0.0312

>  <r_epik_Charging_Adjusted_Penalty>
0.0667178

>  <i_epik_Tot_Q>
1

>  <i_epik_Tot_abs_Q>
1

>  <s_lp_Force_Field>
OPLS_2005

>  <r_lp_Energy>
39.9753

>  <b_lp_Chiralities_Consistent>
1

>  <s_lp_Variant>
BACE_78.smi:1-1

>  <chiral flag>
1

>  <version>
0

>  <s_i_glide_gridfile>
second_dock_grid_2

>  <i_i_glide_lignum>
156

>  <i_i_glide_rotatable_bonds>
8

>  <r_i_docking_score>
-2.58763

>  <r_i_glide_ligand_efficiency>
-0.069936

>  <r_i_glide_ligand_efficiency_sa>
-0.233042

>  <r_i_glide_ligand_efficiency_ln>
-0.561197

>  <r_glide_XP_GScore>
-2.61883

>  <r_i_glide_gscore>
-2.61883

>  <r_i_glide_evdw>
-38.817

>  <r_i_glide_ecoul>
-14.7837

>  <r_i_glide_energy>
-53.6006

>  <r_i_glide_einternal>
3.89465

>  <r_i_glide_emodel>
-75.3226

>  <r_glide_XP_HBond>
-1.87265

>  <i_i_glide_confnum>
1

>  <i_i_glide_posenum>
1

>  <r_i_glide_eff_state_penalty>
0.0312

>  <i_glide_XP_PoseRank>
1

$$$$
