BACE_137.smi:1
 OpenBabel09291822493D
Structure written by MMmdl.
 74 77  0  0  1  0  0  0  0  0999 V2000
   27.7683   45.3989  -14.1443 C   0  0  0  0  0  0  0  0  0  0  0  0
   27.6281   45.4596  -12.6154 C   0  0  0  0  0  0  0  0  0  0  0  0
   28.8390   46.1419  -11.9611 C   0  0  0  0  0  0  0  0  0  0  0  0
   27.3716   44.0815  -12.0194 C   0  0  0  0  0  0  0  0  0  0  0  0
   28.3333   43.0541  -12.1388 C   0  0  0  0  0  0  0  0  0  0  0  0
   28.0917   41.7865  -11.5766 C   0  0  0  0  0  0  0  0  0  0  0  0
   26.8923   41.5394  -10.8831 C   0  0  0  0  0  0  0  0  0  0  0  0
   25.9270   42.5600  -10.7534 C   0  0  0  0  0  0  0  0  0  0  0  0
   24.6570   42.3189   -9.9526 C   0  0  0  0  0  0  0  0  0  0  0  0
   23.9288   41.1267  -10.4396 N   0  3  0  0  0  0  0  0  0  0  0  0
   22.4817   41.1049  -10.1340 C   0  0  0  0  0  0  0  0  0  0  0  0
   22.0698   42.3387   -9.3006 C   0  0  1  0  0  0  0  0  0  0  0  0
   21.3785   43.2134  -10.1708 O   0  0  0  0  0  0  0  0  0  0  0  0
   21.1832   41.9931   -8.0749 C   0  0  2  0  0  0  0  0  0  0  0  0
   21.1783   40.4795   -7.7199 C   0  0  0  0  0  0  0  0  0  0  0  0
   20.1014   39.6606   -8.4236 C   0  0  0  0  0  0  0  0  0  0  0  0
   20.3056   39.1938   -9.7386 C   0  0  0  0  0  0  0  0  0  0  0  0
   19.2949   38.4647  -10.3944 C   0  0  0  0  0  0  0  0  0  0  0  0
   18.0784   38.1948   -9.7384 C   0  0  0  0  0  0  0  0  0  0  0  0
   17.8661   38.6561   -8.4227 C   0  0  0  0  0  0  0  0  0  0  0  0
   16.5690   38.3435   -7.6969 C   0  0  0  0  0  0  0  0  0  0  0  0
   15.4785   39.4257   -7.8277 C   0  0  0  0  0  0  0  0  0  0  0  0
   14.7925   39.4942   -9.2072 C   0  0  0  0  0  0  0  0  0  0  0  0
   15.3554   40.5276  -10.2005 C   0  0  0  0  0  0  0  0  0  0  0  0
   14.8758   41.8404   -9.9108 O   0  0  0  0  0  0  0  0  0  0  0  0
   15.6762   42.7603   -9.2655 C   0  0  0  0  0  0  0  0  0  0  0  0
   15.1499   44.0539   -9.0690 C   0  0  0  0  0  0  0  0  0  0  0  0
   15.8186   45.0576   -8.4631 N   0  0  0  0  0  0  0  0  0  0  0  0
   17.0677   44.8088   -8.0188 C   0  0  0  0  0  0  0  0  0  0  0  0
   17.7095   43.5611   -8.1676 C   0  0  0  0  0  0  0  0  0  0  0  0
   16.9881   42.5184   -8.7935 C   0  0  0  0  0  0  0  0  0  0  0  0
   19.1019   43.3453   -7.6506 C   0  0  0  0  0  0  0  0  0  0  0  0
   19.5498   44.0055   -6.7141 O   0  0  0  0  0  0  0  0  0  0  0  0
   19.8123   42.4352   -8.3327 N   0  0  0  0  0  0  0  0  0  0  0  0
   18.8817   39.3839   -7.7683 C   0  0  0  0  0  0  0  0  0  0  0  0
   26.1666   43.8246  -11.3308 C   0  0  0  0  0  0  0  0  0  0  0  0
   22.9663   42.8477   -8.9439 H   0  0  0  0  0  0  0  0  0  0  0  0
   21.5978   42.5312   -7.2203 H   0  0  0  0  0  0  0  0  0  0  0  0
   26.8779   44.9665  -14.6019 H   0  0  0  0  0  0  0  0  0  0  0  0
   28.6249   44.7960  -14.4470 H   0  0  0  0  0  0  0  0  0  0  0  0
   27.9025   46.3959  -14.5645 H   0  0  0  0  0  0  0  0  0  0  0  0
   26.7583   46.0813  -12.3985 H   0  0  0  0  0  0  0  0  0  0  0  0
   28.7117   46.2120  -10.8804 H   0  0  0  0  0  0  0  0  0  0  0  0
   28.9731   47.1544  -12.3427 H   0  0  0  0  0  0  0  0  0  0  0  0
   29.7613   45.5940  -12.1545 H   0  0  0  0  0  0  0  0  0  0  0  0
   29.2627   43.2338  -12.6593 H   0  0  0  0  0  0  0  0  0  0  0  0
   28.8332   41.0065  -11.6687 H   0  0  0  0  0  0  0  0  0  0  0  0
   26.7239   40.5686  -10.4400 H   0  0  0  0  0  0  0  0  0  0  0  0
   24.9226   42.1661   -8.9063 H   0  0  0  0  0  0  0  0  0  0  0  0
   24.0030   43.1912   -9.9915 H   0  0  0  0  0  0  0  0  0  0  0  0
   24.0361   41.0983  -11.4432 H   0  0  0  0  0  0  0  0  0  0  0  0
   21.9039   41.0299  -11.0563 H   0  0  0  0  0  0  0  0  0  0  0  0
   22.2634   40.1964   -9.5796 H   0  0  0  0  0  0  0  0  0  0  0  0
   21.6525   43.0365  -11.0582 H   0  0  0  0  0  0  0  0  0  0  0  0
   22.1511   40.0193   -7.8923 H   0  0  0  0  0  0  0  0  0  0  0  0
   21.0081   40.3833   -6.6468 H   0  0  0  0  0  0  0  0  0  0  0  0
   21.2352   39.3962  -10.2496 H   0  0  0  0  0  0  0  0  0  0  0  0
   19.4534   38.1095  -11.4021 H   0  0  0  0  0  0  0  0  0  0  0  0
   17.3095   37.6315  -10.2469 H   0  0  0  0  0  0  0  0  0  0  0  0
   16.1864   37.3810   -8.0391 H   0  0  0  0  0  0  0  0  0  0  0  0
   16.8025   38.2049   -6.6404 H   0  0  0  0  0  0  0  0  0  0  0  0
   14.7035   39.1713   -7.1036 H   0  0  0  0  0  0  0  0  0  0  0  0
   15.8491   40.3988   -7.5108 H   0  0  0  0  0  0  0  0  0  0  0  0
   14.8175   38.5054   -9.6664 H   0  0  0  0  0  0  0  0  0  0  0  0
   13.7338   39.7138   -9.0638 H   0  0  0  0  0  0  0  0  0  0  0  0
   16.4323   40.4479  -10.3292 H   0  0  0  0  0  0  0  0  0  0  0  0
   14.9516   40.2884  -11.1846 H   0  0  0  0  0  0  0  0  0  0  0  0
   14.1546   44.2920   -9.4143 H   0  0  0  0  0  0  0  0  0  0  0  0
   17.5698   45.6386   -7.5430 H   0  0  0  0  0  0  0  0  0  0  0  0
   17.4487   41.5503   -8.8971 H   0  0  0  0  0  0  0  0  0  0  0  0
   19.3399   41.9701   -9.0947 H   0  0  0  0  0  0  0  0  0  0  0  0
   18.7196   39.7406   -6.7613 H   0  0  0  0  0  0  0  0  0  0  0  0
   25.4285   44.6066  -11.2256 H   0  0  0  0  0  0  0  0  0  0  0  0
   24.3489   40.2952  -10.0494 H   0  0  0  0  0  0  0  0  0  0  0  0
  1  2  1  0  0  0  0
  1 39  1  0  0  0  0
  1 40  1  0  0  0  0
  1 41  1  0  0  0  0
  2  3  1  0  0  0  0
  2  4  1  0  0  0  0
  2 42  1  0  0  0  0
  3 43  1  0  0  0  0
  3 44  1  0  0  0  0
  3 45  1  0  0  0  0
  4 36  1  0  0  0  0
  4  5  2  0  0  0  0
  5  6  1  0  0  0  0
  5 46  1  0  0  0  0
  6  7  2  0  0  0  0
  6 47  1  0  0  0  0
  7  8  1  0  0  0  0
  7 48  1  0  0  0  0
  8  9  1  0  0  0  0
  8 36  2  0  0  0  0
  9 10  1  0  0  0  0
  9 49  1  0  0  0  0
  9 50  1  0  0  0  0
 10 11  1  0  0  0  0
 10 51  1  0  0  0  0
 10 74  1  0  0  0  0
 11 12  1  0  0  0  0
 11 52  1  0  0  0  0
 11 53  1  0  0  0  0
 12 37  1  1  0  0  0
 12 13  1  0  0  0  0
 12 14  1  0  0  0  0
 13 54  1  0  0  0  0
 14 38  1  1  0  0  0
 14 34  1  0  0  0  0
 14 15  1  0  0  0  0
 15 16  1  0  0  0  0
 15 55  1  0  0  0  0
 15 56  1  0  0  0  0
 16 35  1  0  0  0  0
 16 17  2  0  0  0  0
 17 18  1  0  0  0  0
 17 57  1  0  0  0  0
 18 19  2  0  0  0  0
 18 58  1  0  0  0  0
 19 20  1  0  0  0  0
 19 59  1  0  0  0  0
 20 21  1  0  0  0  0
 20 35  2  0  0  0  0
 21 22  1  0  0  0  0
 21 60  1  0  0  0  0
 21 61  1  0  0  0  0
 22 23  1  0  0  0  0
 22 62  1  0  0  0  0
 22 63  1  0  0  0  0
 23 24  1  0  0  0  0
 23 64  1  0  0  0  0
 23 65  1  0  0  0  0
 24 25  1  0  0  0  0
 24 66  1  0  0  0  0
 24 67  1  0  0  0  0
 25 26  1  0  0  0  0
 26 31  1  0  0  0  0
 26 27  2  0  0  0  0
 27 28  1  0  0  0  0
 27 68  1  0  0  0  0
 28 29  2  0  0  0  0
 29 30  1  0  0  0  0
 29 69  1  0  0  0  0
 30 31  2  0  0  0  0
 30 32  1  0  0  0  0
 31 70  1  0  0  0  0
 32 33  2  0  0  0  0
 32 34  1  0  0  0  0
 34 71  1  0  0  0  0
 35 72  1  0  0  0  0
 36 73  1  0  0  0  0
M  CHG  1  10   1
M  END
>  <s_m_source_file>
BACE_137.smi

>  <i_m_source_file_index>
1

>  <i_lp_mmshare_version>
42013

>  <i_f3d_flags>
0

>  <s_epik_input>
W0NIM11bQ0hdKFtDSDNdKWMxW2NIXVtjSF1bY0hdYyhbY0hdMSlbQ0gyXVtOSF1bQ0gyXVtDQEBIXShbT0hdKVtDQEhdKFtDSDJdMilbTkhdQyg9TyljKFtjSF0zKVtjSF1uW2NIXWMzT1tDSDJdW0NIMl1bQ0gyXVtDSDJdYyhbY0hdNClbY0hdW2NIXVtjSF1jMjQ=

>  <s_epik_cmdline>
J2VwaWtfcHl0aG9uJywgJy1waCcsICc3LjAnLCAnLXRuJywgJzgnLCAnLW1hJywgJzIwMCcsICctaW1hZScsICc8aW5maWxlLm1hZT4nLCAnLW9tYWUnLCAnPG91dGZpbGUubWFlPic=

>  <r_lp_tautomer_probability>
1

>  <r_epik_Ionization_Penalty>
0.0203

>  <r_epik_Ionization_Penalty_Charging>
0.0201

>  <r_epik_Ionization_Penalty_Neutral>
0.0002

>  <r_epik_State_Penalty>
0.0161

>  <r_epik_Charging_Adjusted_Penalty>
0.0361071

>  <i_epik_Tot_Q>
1

>  <i_epik_Tot_abs_Q>
1

>  <s_lp_Force_Field>
OPLS_2005

>  <r_lp_Energy>
27.1754

>  <b_lp_Chiralities_Consistent>
1

>  <s_lp_Variant>
BACE_137.smi:1-1

>  <chiral flag>
1

>  <version>
0

>  <s_i_glide_gridfile>
second_dock_grid_2

>  <i_i_glide_lignum>
281

>  <i_i_glide_rotatable_bonds>
7

>  <r_i_docking_score>
-2.77077

>  <r_i_glide_ligand_efficiency>
-0.0769657

>  <r_i_glide_ligand_efficiency_sa>
-0.254135

>  <r_i_glide_ligand_efficiency_ln>
-0.604506

>  <r_glide_XP_GScore>
-2.78687

>  <r_i_glide_gscore>
-2.78687

>  <r_i_glide_evdw>
-37.3021

>  <r_i_glide_ecoul>
-10.0099

>  <r_i_glide_energy>
-47.312

>  <r_i_glide_einternal>
3.34623

>  <r_i_glide_emodel>
-65.342

>  <r_glide_XP_HBond>
0

>  <i_i_glide_confnum>
1

>  <i_i_glide_posenum>
2

>  <r_i_glide_eff_state_penalty>
0.0161

>  <i_glide_XP_PoseRank>
1

$$$$
