BACE_98.smi:1
 OpenBabel09291822493D
Structure written by MMmdl.
 77 81  0  0  1  0  0  0  0  0999 V2000
   22.4596   41.7772   -3.3875 C   0  0  0  0  0  0  0  0  0  0  0  0
   21.6051   42.1647   -4.6031 C   0  0  0  0  0  0  0  0  0  0  0  0
   20.2821   42.8172   -4.1776 C   0  0  0  0  0  0  0  0  0  0  0  0
   22.3858   43.0425   -5.5737 C   0  0  0  0  0  0  0  0  0  0  0  0
   22.7527   44.3598   -5.2375 C   0  0  0  0  0  0  0  0  0  0  0  0
   23.4849   45.1158   -6.1715 C   0  0  0  0  0  0  0  0  0  0  0  0
   23.8636   44.6466   -7.3776 N   0  0  0  0  0  0  0  0  0  0  0  0
   23.5344   43.3729   -7.6902 C   0  0  0  0  0  0  0  0  0  0  0  0
   22.7818   42.5474   -6.8297 C   0  0  0  0  0  0  0  0  0  0  0  0
   24.0282   42.8718   -9.0185 C   0  0  0  0  0  0  0  0  0  0  0  0
   25.5088   42.9261   -9.3113 C   0  0  0  0  0  0  0  0  0  0  0  0
   24.8559   41.5960   -9.0177 C   0  0  0  0  0  0  0  0  0  0  0  0
   23.0329   43.1178  -10.0664 N   0  0  0  0  0  0  0  0  0  0  0  0
   23.0154   42.2337  -11.2324 C   0  0  0  0  0  0  0  0  0  0  0  0
   21.5920   42.1184  -11.7857 C   0  0  1  0  0  0  0  0  0  0  0  0
   21.6600   41.3460  -12.9647 O   0  0  0  0  0  0  0  0  0  0  0  0
   20.6350   41.4279  -10.7756 C   0  0  2  0  0  0  0  0  0  0  0  0
   20.8291   39.8979  -10.6369 C   0  0  0  0  0  0  0  0  0  0  0  0
   20.0888   39.3395   -9.4372 C   0  0  0  0  0  0  0  0  0  0  0  0
   20.6848   39.3757   -8.1594 C   0  0  0  0  0  0  0  0  0  0  0  0
   19.9630   38.9475   -7.0292 C   0  0  0  0  0  0  0  0  0  0  0  0
   18.6501   38.4621   -7.1743 C   0  0  0  0  0  0  0  0  0  0  0  0
   18.0638   38.3971   -8.4561 C   0  0  0  0  0  0  0  0  0  0  0  0
   16.6495   37.8877   -8.6216 C   0  0  0  0  0  0  0  0  0  0  0  0
   15.6034   38.8523   -8.0372 C   0  0  0  0  0  0  0  0  0  0  0  0
   14.3197   38.8845   -8.8730 C   0  0  0  0  0  0  0  0  0  0  0  0
   14.4493   39.7437  -10.1389 C   0  0  0  0  0  0  0  0  0  0  0  0
   14.1751   41.1463   -9.8770 N   0  0  0  0  0  0  0  0  0  0  0  0
   15.0038   42.1211  -10.4286 C   0  0  0  0  0  0  0  0  0  0  0  0
   16.4047   41.9803  -10.4174 C   0  0  0  0  0  0  0  0  0  0  0  0
   17.1950   43.0262  -10.9363 C   0  0  0  0  0  0  0  0  0  0  0  0
   16.5425   44.1611  -11.4583 C   0  0  0  0  0  0  0  0  0  0  0  0
   15.1364   44.2137  -11.4192 C   0  0  0  0  0  0  0  0  0  0  0  0
   14.3359   45.6042  -12.0522 Cl  0  0  0  0  0  0  0  0  0  0  0  0
   14.3816   43.2128  -10.9176 N   0  0  0  0  0  0  0  0  0  0  0  0
   18.6890   42.9791  -10.8495 C   0  0  0  0  0  0  0  0  0  0  0  0
   19.3370   44.0054  -10.6517 O   0  0  0  0  0  0  0  0  0  0  0  0
   19.2344   41.7650  -11.0176 N   0  0  0  0  0  0  0  0  0  0  0  0
   18.7846   38.8299   -9.5863 C   0  0  0  0  0  0  0  0  0  0  0  0
   21.2483   43.1205  -12.0392 H   0  0  0  0  0  0  0  0  0  0  0  0
   20.8409   41.8458   -9.7890 H   0  0  0  0  0  0  0  0  0  0  0  0
   23.3602   41.2487   -3.6943 H   0  0  0  0  0  0  0  0  0  0  0  0
   21.9077   41.1193   -2.7151 H   0  0  0  0  0  0  0  0  0  0  0  0
   22.7655   42.6543   -2.8166 H   0  0  0  0  0  0  0  0  0  0  0  0
   21.3493   41.2432   -5.1265 H   0  0  0  0  0  0  0  0  0  0  0  0
   19.6610   43.0348   -5.0463 H   0  0  0  0  0  0  0  0  0  0  0  0
   20.4401   43.7493   -3.6396 H   0  0  0  0  0  0  0  0  0  0  0  0
   19.7126   42.1575   -3.5232 H   0  0  0  0  0  0  0  0  0  0  0  0
   22.4911   44.7807   -4.2791 H   0  0  0  0  0  0  0  0  0  0  0  0
   23.7802   46.1279   -5.9392 H   0  0  0  0  0  0  0  0  0  0  0  0
   22.5385   41.5403   -7.1254 H   0  0  0  0  0  0  0  0  0  0  0  0
   25.8201   43.1028  -10.3385 H   0  0  0  0  0  0  0  0  0  0  0  0
   26.1627   43.3504   -8.5527 H   0  0  0  0  0  0  0  0  0  0  0  0
   24.8600   41.1279   -8.0400 H   0  0  0  0  0  0  0  0  0  0  0  0
   24.9217   40.8924   -9.8456 H   0  0  0  0  0  0  0  0  0  0  0  0
   23.1408   44.0754  -10.3876 H   0  0  0  0  0  0  0  0  0  0  0  0
   23.7103   42.5981  -11.9899 H   0  0  0  0  0  0  0  0  0  0  0  0
   23.3169   41.2223  -10.9865 H   0  0  0  0  0  0  0  0  0  0  0  0
   22.5414   40.9810  -13.0371 H   0  0  0  0  0  0  0  0  0  0  0  0
   20.4973   39.3831  -11.5398 H   0  0  0  0  0  0  0  0  0  0  0  0
   21.8837   39.6479  -10.5228 H   0  0  0  0  0  0  0  0  0  0  0  0
   21.6910   39.7469   -8.0449 H   0  0  0  0  0  0  0  0  0  0  0  0
   20.4141   38.9901   -6.0499 H   0  0  0  0  0  0  0  0  0  0  0  0
   18.0905   38.1355   -6.3092 H   0  0  0  0  0  0  0  0  0  0  0  0
   16.5620   36.9119   -8.1438 H   0  0  0  0  0  0  0  0  0  0  0  0
   16.4641   37.7141   -9.6818 H   0  0  0  0  0  0  0  0  0  0  0  0
   15.3828   38.5548   -7.0098 H   0  0  0  0  0  0  0  0  0  0  0  0
   16.0016   39.8649   -7.9683 H   0  0  0  0  0  0  0  0  0  0  0  0
   13.4918   39.2452   -8.2635 H   0  0  0  0  0  0  0  0  0  0  0  0
   14.0579   37.8649   -9.1552 H   0  0  0  0  0  0  0  0  0  0  0  0
   15.4019   39.5762  -10.6422 H   0  0  0  0  0  0  0  0  0  0  0  0
   13.6871   39.4272  -10.8395 H   0  0  0  0  0  0  0  0  0  0  0  0
   13.2008   41.3732   -9.7175 H   0  0  0  0  0  0  0  0  0  0  0  0
   16.8636   41.1151   -9.9579 H   0  0  0  0  0  0  0  0  0  0  0  0
   17.1102   44.9918  -11.8535 H   0  0  0  0  0  0  0  0  0  0  0  0
   18.6081   40.9923  -11.1955 H   0  0  0  0  0  0  0  0  0  0  0  0
   18.3292   38.7940  -10.5654 H   0  0  0  0  0  0  0  0  0  0  0  0
  1  2  1  0  0  0  0
  1 42  1  0  0  0  0
  1 43  1  0  0  0  0
  1 44  1  0  0  0  0
  2  3  1  0  0  0  0
  2  4  1  0  0  0  0
  2 45  1  0  0  0  0
  3 46  1  0  0  0  0
  3 47  1  0  0  0  0
  3 48  1  0  0  0  0
  4  9  1  0  0  0  0
  4  5  2  0  0  0  0
  5  6  1  0  0  0  0
  5 49  1  0  0  0  0
  6  7  2  0  0  0  0
  6 50  1  0  0  0  0
  7  8  1  0  0  0  0
  8  9  2  0  0  0  0
  8 10  1  0  0  0  0
  9 51  1  0  0  0  0
 10 12  1  0  0  0  0
 10 11  1  0  0  0  0
 10 13  1  0  0  0  0
 11 12  1  0  0  0  0
 11 52  1  0  0  0  0
 11 53  1  0  0  0  0
 12 54  1  0  0  0  0
 12 55  1  0  0  0  0
 13 14  1  0  0  0  0
 13 56  1  0  0  0  0
 14 15  1  0  0  0  0
 14 57  1  0  0  0  0
 14 58  1  0  0  0  0
 15 40  1  6  0  0  0
 15 16  1  0  0  0  0
 15 17  1  0  0  0  0
 16 59  1  0  0  0  0
 17 41  1  1  0  0  0
 17 38  1  0  0  0  0
 17 18  1  0  0  0  0
 18 19  1  0  0  0  0
 18 60  1  0  0  0  0
 18 61  1  0  0  0  0
 19 39  1  0  0  0  0
 19 20  2  0  0  0  0
 20 21  1  0  0  0  0
 20 62  1  0  0  0  0
 21 22  2  0  0  0  0
 21 63  1  0  0  0  0
 22 23  1  0  0  0  0
 22 64  1  0  0  0  0
 23 24  1  0  0  0  0
 23 39  2  0  0  0  0
 24 25  1  0  0  0  0
 24 65  1  0  0  0  0
 24 66  1  0  0  0  0
 25 26  1  0  0  0  0
 25 67  1  0  0  0  0
 25 68  1  0  0  0  0
 26 27  1  0  0  0  0
 26 69  1  0  0  0  0
 26 70  1  0  0  0  0
 27 28  1  0  0  0  0
 27 71  1  0  0  0  0
 27 72  1  0  0  0  0
 28 29  1  0  0  0  0
 28 73  1  0  0  0  0
 29 35  1  0  0  0  0
 29 30  2  0  0  0  0
 30 31  1  0  0  0  0
 30 74  1  0  0  0  0
 31 32  2  0  0  0  0
 31 36  1  0  0  0  0
 32 33  1  0  0  0  0
 32 75  1  0  0  0  0
 33 34  1  0  0  0  0
 33 35  2  0  0  0  0
 36 37  2  0  0  0  0
 36 38  1  0  0  0  0
 38 76  1  0  0  0  0
 39 77  1  0  0  0  0
M  END
>  <s_m_source_file>
BACE_98.smi

>  <i_m_source_file_index>
1

>  <i_lp_mmshare_version>
42013

>  <i_f3d_flags>
0

>  <s_epik_input>
W0NIM11bQ0hdKFtDSDNdKWMxW2NIXVtjSF1uYyhbY0hdMSlDMihbQ0gyXVtDSDJdMilbTkhdW0NIMl1bQ0BASF0oW09IXSlbQ0BIXShbQ0gyXTMpW05IXUMoPU8pYyhbY0hdYyhDbCluNClbY0hdYzRbTkhdW0NIMl1bQ0gyXVtDSDJdW0NIMl1jKFtjSF01KVtjSF1bY0hdW2NIXWMzNQ==

>  <s_epik_cmdline>
J2VwaWtfcHl0aG9uJywgJy1waCcsICc3LjAnLCAnLXRuJywgJzgnLCAnLW1hJywgJzIwMCcsICctaW1hZScsICc8aW5maWxlLm1hZT4nLCAnLW9tYWUnLCAnPG91dGZpbGUubWFlPic=

>  <r_lp_tautomer_probability>
1

>  <r_epik_Ionization_Penalty>
0.1842

>  <r_epik_Ionization_Penalty_Charging>
0.0000

>  <r_epik_Ionization_Penalty_Neutral>
0.1842

>  <r_epik_State_Penalty>
0.0776

>  <r_epik_Charging_Adjusted_Penalty>
0.0775933

>  <i_epik_Tot_Q>
0

>  <i_epik_Tot_abs_Q>
0

>  <s_lp_Force_Field>
OPLS_2005

>  <r_lp_Energy>
27.1838

>  <b_lp_Chiralities_Consistent>
1

>  <s_lp_Variant>
BACE_98.smi:1-1

>  <chiral flag>
1

>  <version>
0

>  <s_i_glide_gridfile>
second_dock_grid_2

>  <i_i_glide_lignum>
199

>  <i_i_glide_rotatable_bonds>
7

>  <r_i_docking_score>
-4.16016

>  <r_i_glide_ligand_efficiency>
-0.106671

>  <r_i_glide_ligand_efficiency_sa>
-0.361743

>  <r_i_glide_ligand_efficiency_ln>
-0.892057

>  <r_glide_XP_GScore>
-4.23776

>  <r_i_glide_gscore>
-4.23776

>  <r_i_glide_evdw>
-39.0219

>  <r_i_glide_ecoul>
-12.4504

>  <r_i_glide_energy>
-51.4722

>  <r_i_glide_einternal>
9.49655

>  <r_i_glide_emodel>
-63.4006

>  <r_glide_XP_HBond>
-0.964973

>  <i_i_glide_confnum>
1

>  <i_i_glide_posenum>
3

>  <r_i_glide_eff_state_penalty>
0.0776

>  <i_glide_XP_PoseRank>
1

$$$$
