BACE_5.smi:1
 OpenBabel09291822493D
Structure written by MMmdl.
 79 80  0  0  1  0  0  0  0  0999 V2000
   27.7353   46.0669  -12.4820 C   0  0  0  0  0  0  0  0  0  0  0  0
   28.9796   45.7970  -11.6215 C   0  0  0  0  0  0  0  0  0  0  0  0
   28.6732   45.1357  -10.2654 C   0  0  0  0  0  0  0  0  0  0  0  0
   28.0058   43.7953  -10.4051 C   0  0  0  0  0  0  0  0  0  0  0  0
   26.6401   43.4649  -10.1648 C   0  0  0  0  0  0  0  0  0  0  0  0
   26.5550   42.1321  -10.4553 C   0  0  0  0  0  0  0  0  0  0  0  0
   25.4172   41.1652  -10.4021 C   0  0  0  0  0  0  0  0  0  0  0  0
   24.1194   41.8379  -10.4400 N   0  0  0  0  0  0  0  0  0  0  0  0
   23.2473   41.5399   -9.3002 C   0  0  0  0  0  0  0  0  0  0  0  0
   22.4437   40.2216   -9.4714 C   0  0  1  0  0  0  0  0  0  0  0  0
   22.8601   39.3509   -8.4401 O   0  0  0  0  0  0  0  0  0  0  0  0
   20.9080   40.4196   -9.3484 C   0  0  2  0  0  0  0  0  0  0  0  0
   20.1001   39.1035   -9.5115 C   0  0  0  0  0  0  0  0  0  0  0  0
   18.6229   39.1920   -9.0480 C   0  0  2  0  0  0  0  0  0  0  0  0
   18.1972   37.9023   -8.3244 C   0  0  0  0  0  0  0  0  0  0  0  0
   17.6545   39.5298  -10.2024 C   0  0  0  0  0  0  0  0  0  0  0  0
   16.2955   40.0639   -9.7148 C   0  0  0  0  0  0  0  0  0  0  0  0
   15.4439   40.6229  -10.8626 C   0  0  0  0  0  0  0  0  0  0  0  0
   14.1077   41.2517  -10.4234 C   0  0  0  0  0  0  0  0  0  0  0  0
   14.2019   42.4255   -9.4263 C   0  0  0  0  0  0  0  0  0  0  0  0
   15.2169   43.5123   -9.8011 C   0  0  0  0  0  0  0  0  0  0  0  0
   14.9684   43.9901  -11.1215 O   0  0  0  0  0  0  0  0  0  0  0  0
   15.9507   44.8907  -11.6304 C   0  0  0  0  0  0  0  0  0  0  0  0
   17.2780   44.1488  -11.9002 C   0  0  0  0  0  0  0  0  0  0  0  0
   17.2840   43.3502  -12.8402 O   0  0  0  0  0  0  0  0  0  0  0  0
   18.3546   44.3509  -11.0929 N   0  0  0  0  0  0  0  0  0  0  0  0
   18.3277   45.3591  -10.0190 C   0  0  0  0  0  0  0  0  0  0  0  0
   19.5726   43.5100  -11.2238 C   0  0  1  0  0  0  0  0  0  0  0  0
   20.8400   44.3869  -11.3257 C   0  0  0  0  0  0  0  0  0  0  0  0
   19.7370   42.5115  -10.0618 C   0  0  0  0  0  0  0  0  0  0  0  0
   19.2421   42.7321   -8.9572 O   0  0  0  0  0  0  0  0  0  0  0  0
   20.4733   41.4201  -10.3262 N   0  0  0  0  0  0  0  0  0  0  0  0
   27.8178   41.7499  -10.8399 N   0  0  0  0  0  0  0  0  0  0  0  0
   28.7182   42.7487  -10.7957 N   0  0  0  0  0  0  0  0  0  0  0  0
   22.6723   39.7461  -10.4271 H   0  0  0  0  0  0  0  0  0  0  0  0
   20.7292   40.7967   -8.3394 H   0  0  0  0  0  0  0  0  0  0  0  0
   18.5598   39.9926   -8.3089 H   0  0  0  0  0  0  0  0  0  0  0  0
   19.5339   42.9194  -12.1398 H   0  0  0  0  0  0  0  0  0  0  0  0
   28.0047   46.5851  -13.4023 H   0  0  0  0  0  0  0  0  0  0  0  0
   27.0106   46.6829  -11.9494 H   0  0  0  0  0  0  0  0  0  0  0  0
   27.2406   45.1376  -12.7655 H   0  0  0  0  0  0  0  0  0  0  0  0
   29.5017   46.7367  -11.4459 H   0  0  0  0  0  0  0  0  0  0  0  0
   29.6714   45.1666  -12.1819 H   0  0  0  0  0  0  0  0  0  0  0  0
   28.0432   45.8010   -9.6733 H   0  0  0  0  0  0  0  0  0  0  0  0
   29.6013   45.0257   -9.7028 H   0  0  0  0  0  0  0  0  0  0  0  0
   25.8390   44.1085   -9.8339 H   0  0  0  0  0  0  0  0  0  0  0  0
   25.5149   40.5538   -9.5050 H   0  0  0  0  0  0  0  0  0  0  0  0
   25.4931   40.4745  -11.2400 H   0  0  0  0  0  0  0  0  0  0  0  0
   23.6587   41.5712  -11.3079 H   0  0  0  0  0  0  0  0  0  0  0  0
   22.5551   42.3720   -9.1755 H   0  0  0  0  0  0  0  0  0  0  0  0
   23.8225   41.5380   -8.3722 H   0  0  0  0  0  0  0  0  0  0  0  0
   23.6780   38.9523   -8.7194 H   0  0  0  0  0  0  0  0  0  0  0  0
   20.1599   38.7376  -10.5372 H   0  0  0  0  0  0  0  0  0  0  0  0
   20.5910   38.3346   -8.9136 H   0  0  0  0  0  0  0  0  0  0  0  0
   17.1736   37.9586   -7.9535 H   0  0  0  0  0  0  0  0  0  0  0  0
   18.8310   37.7265   -7.4554 H   0  0  0  0  0  0  0  0  0  0  0  0
   18.2686   37.0310   -8.9761 H   0  0  0  0  0  0  0  0  0  0  0  0
   18.1030   40.2857  -10.8443 H   0  0  0  0  0  0  0  0  0  0  0  0
   17.5124   38.6564  -10.8395 H   0  0  0  0  0  0  0  0  0  0  0  0
   16.4720   40.8476   -8.9782 H   0  0  0  0  0  0  0  0  0  0  0  0
   15.7408   39.2803   -9.1985 H   0  0  0  0  0  0  0  0  0  0  0  0
   16.0233   41.3560  -11.4223 H   0  0  0  0  0  0  0  0  0  0  0  0
   15.2287   39.8155  -11.5604 H   0  0  0  0  0  0  0  0  0  0  0  0
   13.4760   40.4780   -9.9860 H   0  0  0  0  0  0  0  0  0  0  0  0
   13.5814   41.5946  -11.3135 H   0  0  0  0  0  0  0  0  0  0  0  0
   13.2145   42.8751   -9.3220 H   0  0  0  0  0  0  0  0  0  0  0  0
   14.4572   42.0385   -8.4383 H   0  0  0  0  0  0  0  0  0  0  0  0
   16.2187   43.0966   -9.6992 H   0  0  0  0  0  0  0  0  0  0  0  0
   15.1501   44.3405   -9.0940 H   0  0  0  0  0  0  0  0  0  0  0  0
   16.0366   45.7629  -10.9847 H   0  0  0  0  0  0  0  0  0  0  0  0
   15.5868   45.2703  -12.5855 H   0  0  0  0  0  0  0  0  0  0  0  0
   19.2350   45.3703   -9.4165 H   0  0  0  0  0  0  0  0  0  0  0  0
   17.5140   45.1679   -9.3184 H   0  0  0  0  0  0  0  0  0  0  0  0
   18.2063   46.3620  -10.4323 H   0  0  0  0  0  0  0  0  0  0  0  0
   21.6952   43.7987  -11.6607 H   0  0  0  0  0  0  0  0  0  0  0  0
   21.1260   44.8318  -10.3725 H   0  0  0  0  0  0  0  0  0  0  0  0
   20.7034   45.1983  -12.0396 H   0  0  0  0  0  0  0  0  0  0  0  0
   20.8224   41.3088  -11.2659 H   0  0  0  0  0  0  0  0  0  0  0  0
   28.0800   40.7996  -11.0841 H   0  0  0  0  0  0  0  0  0  0  0  0
  1  2  1  0  0  0  0
  1 39  1  0  0  0  0
  1 40  1  0  0  0  0
  1 41  1  0  0  0  0
  2  3  1  0  0  0  0
  2 42  1  0  0  0  0
  2 43  1  0  0  0  0
  3 44  1  0  0  0  0
  3 45  1  0  0  0  0
  3  4  1  0  0  0  0
  4 34  2  0  0  0  0
  4  5  1  0  0  0  0
  5  6  2  0  0  0  0
  5 46  1  0  0  0  0
  6 33  1  0  0  0  0
  6  7  1  0  0  0  0
  7  8  1  0  0  0  0
  7 47  1  0  0  0  0
  7 48  1  0  0  0  0
  8  9  1  0  0  0  0
  8 49  1  0  0  0  0
  9 10  1  0  0  0  0
  9 50  1  0  0  0  0
  9 51  1  0  0  0  0
 10 35  1  6  0  0  0
 10 11  1  0  0  0  0
 10 12  1  0  0  0  0
 11 52  1  0  0  0  0
 12 36  1  1  0  0  0
 12 32  1  0  0  0  0
 12 13  1  0  0  0  0
 13 14  1  0  0  0  0
 13 53  1  0  0  0  0
 13 54  1  0  0  0  0
 14 37  1  1  0  0  0
 14 15  1  0  0  0  0
 14 16  1  0  0  0  0
 15 55  1  0  0  0  0
 15 56  1  0  0  0  0
 15 57  1  0  0  0  0
 16 17  1  0  0  0  0
 16 58  1  0  0  0  0
 16 59  1  0  0  0  0
 17 18  1  0  0  0  0
 17 60  1  0  0  0  0
 17 61  1  0  0  0  0
 18 19  1  0  0  0  0
 18 62  1  0  0  0  0
 18 63  1  0  0  0  0
 19 20  1  0  0  0  0
 19 64  1  0  0  0  0
 19 65  1  0  0  0  0
 20 21  1  0  0  0  0
 20 66  1  0  0  0  0
 20 67  1  0  0  0  0
 21 22  1  0  0  0  0
 21 68  1  0  0  0  0
 21 69  1  0  0  0  0
 22 23  1  0  0  0  0
 23 24  1  0  0  0  0
 23 70  1  0  0  0  0
 23 71  1  0  0  0  0
 24 25  2  0  0  0  0
 24 26  1  0  0  0  0
 26 27  1  0  0  0  0
 26 28  1  0  0  0  0
 27 72  1  0  0  0  0
 27 73  1  0  0  0  0
 27 74  1  0  0  0  0
 28 38  1  6  0  0  0
 28 29  1  0  0  0  0
 28 30  1  0  0  0  0
 29 75  1  0  0  0  0
 29 76  1  0  0  0  0
 29 77  1  0  0  0  0
 30 31  2  0  0  0  0
 30 32  1  0  0  0  0
 32 78  1  0  0  0  0
 33 34  1  0  0  0  0
 33 79  1  0  0  0  0
M  END
>  <s_m_source_file>
BACE_5.smi

>  <i_m_source_file_index>
1

>  <i_lp_mmshare_version>
42013

>  <i_f3d_flags>
0

>  <s_epik_input>
W0NIM11bQ0gyXVtDSDJdYzFbY0hdYyhuW25IXTEpW0NIMl1bTkhdW0NIMl1bQ0BASF0oW09IXSlbQ0BASF0yW0NIMl1bQ0BIXShbQ0gzXSlbQ0gyXVtDSDJdW0NIMl1bQ0gyXVtDSDJdW0NIMl1PW0NIMl1DKD1PKU4oW0NIM10pW0NAQEhdKFtDSDNdKUMoPU8pW05IXTI=

>  <s_epik_cmdline>
J2VwaWtfcHl0aG9uJywgJy1waCcsICc3LjAnLCAnLXRuJywgJzgnLCAnLW1hJywgJzIwMCcsICctaW1hZScsICc8aW5maWxlLm1hZT4nLCAnLW9tYWUnLCAnPG91dGZpbGUubWFlPic=

>  <r_lp_tautomer_probability>
0.5

>  <r_epik_Ionization_Penalty>
0.9876

>  <r_epik_Ionization_Penalty_Charging>
0.0000

>  <r_epik_Ionization_Penalty_Neutral>
0.9876

>  <r_epik_State_Penalty>
1.6104

>  <r_epik_Charging_Adjusted_Penalty>
1.61044

>  <i_epik_Tot_Q>
0

>  <i_epik_Tot_abs_Q>
0

>  <s_lp_Force_Field>
OPLS_2005

>  <r_lp_Energy>
32.6261

>  <b_lp_Chiralities_Consistent>
1

>  <s_lp_Variant>
BACE_5.smi:1-3

>  <chiral flag>
1

>  <version>
0

>  <s_i_glide_gridfile>
second_dock_grid_2

>  <i_i_glide_lignum>
6

>  <i_i_glide_rotatable_bonds>
8

>  <r_i_docking_score>
-2.95151

>  <r_i_glide_ligand_efficiency>
-0.0868092

>  <r_i_glide_ligand_efficiency_sa>
-0.281228

>  <r_i_glide_ligand_efficiency_ln>
-0.652072

>  <r_glide_XP_GScore>
-4.56191

>  <r_i_glide_gscore>
-4.56191

>  <r_i_glide_evdw>
-32.3358

>  <r_i_glide_ecoul>
-13.9041

>  <r_i_glide_energy>
-46.2398

>  <r_i_glide_einternal>
6.64723

>  <r_i_glide_emodel>
-62.6652

>  <r_glide_XP_HBond>
-1.67395

>  <i_i_glide_confnum>
1

>  <i_i_glide_posenum>
1

>  <r_i_glide_eff_state_penalty>
1.6104

>  <i_glide_XP_PoseRank>
1

$$$$
