BACE_96.smi:1
 OpenBabel09291822493D
Structure written by MMmdl.
 83 86  0  0  1  0  0  0  0  0999 V2000
   15.2423   44.3225  -11.3524 C   0  0  0  0  0  0  0  0  0  0  0  0
   16.4958   45.2182  -11.2410 C   0  0  0  0  0  0  0  0  0  0  0  0
   17.0006   45.5351  -12.6622 C   0  0  0  0  0  0  0  0  0  0  0  0
   16.1069   46.5421  -10.5535 C   0  0  0  0  0  0  0  0  0  0  0  0
   17.6381   44.5263  -10.4451 C   0  0  0  0  0  0  0  0  0  0  0  0
   17.2484   43.3058   -9.6725 C   0  0  0  0  0  0  0  0  0  0  0  0
   17.5149   41.9767   -9.8389 C   0  0  0  0  0  0  0  0  0  0  0  0
   16.8084   41.3469   -8.7740 C   0  0  0  0  0  0  0  0  0  0  0  0
   16.1867   42.2439   -8.0189 N   0  0  0  0  0  0  0  0  0  0  0  0
   16.4636   43.4927   -8.5825 O   0  0  0  0  0  0  0  0  0  0  0  0
   16.6946   39.8676   -8.4423 C   0  0  0  0  0  0  0  0  0  0  0  0
   15.7750   39.6446   -7.2198 C   0  0  0  0  0  0  0  0  0  0  0  0
   16.0725   39.1403   -9.6488 C   0  0  0  0  0  0  0  0  0  0  0  0
   18.0246   39.2814   -8.1995 N   0  0  0  0  0  0  0  0  0  0  0  0
   18.9437   39.2532   -9.3416 C   0  0  0  0  0  0  0  0  0  0  0  0
   20.2811   38.5907   -8.9641 C   0  0  1  0  0  0  0  0  0  0  0  0
   21.0622   38.5496  -10.1430 O   0  0  0  0  0  0  0  0  0  0  0  0
   21.0210   39.3824   -7.8549 C   0  0  2  0  0  0  0  0  0  0  0  0
   20.1074   40.1008   -6.8174 C   0  0  0  0  0  0  0  0  0  0  0  0
   20.8619   41.0033   -5.8501 C   0  0  0  0  0  0  0  0  0  0  0  0
   20.7450   42.4080   -5.9479 C   0  0  0  0  0  0  0  0  0  0  0  0
   21.5233   43.2575   -5.1213 C   0  0  0  0  0  0  0  0  0  0  0  0
   22.3707   42.6708   -4.1592 C   0  0  0  0  0  0  0  0  0  0  0  0
   22.4611   41.2720   -4.0307 C   0  0  0  0  0  0  0  0  0  0  0  0
   21.7129   40.4379   -4.8802 C   0  0  0  0  0  0  0  0  0  0  0  0
   21.5403   44.6355   -5.1930 O   0  0  0  0  0  0  0  0  0  0  0  0
   20.7797   45.3134   -6.1885 C   0  0  0  0  0  0  0  0  0  0  0  0
   21.4671   46.6490   -6.5293 C   0  0  0  0  0  0  0  0  0  0  0  0
   22.6020   46.5211   -7.5665 C   0  0  0  0  0  0  0  0  0  0  0  0
   23.8757   45.8289   -7.0404 C   0  0  0  0  0  0  0  0  0  0  0  0
   24.7485   45.4425   -8.1008 O   0  0  0  0  0  0  0  0  0  0  0  0
   24.5584   44.2059   -8.6869 C   0  0  0  0  0  0  0  0  0  0  0  0
   25.6191   43.6707   -9.4465 C   0  0  0  0  0  0  0  0  0  0  0  0
   25.5112   42.3949  -10.0367 C   0  0  0  0  0  0  0  0  0  0  0  0
   26.8298   41.7523  -10.9448 Cl  0  0  0  0  0  0  0  0  0  0  0  0
   24.3315   41.6407   -9.8836 C   0  0  0  0  0  0  0  0  0  0  0  0
   23.2508   42.1740   -9.1523 C   0  0  0  0  0  0  0  0  0  0  0  0
   23.3687   43.4482   -8.5631 C   0  0  0  0  0  0  0  0  0  0  0  0
   21.9730   41.4153   -8.9879 C   0  0  0  0  0  0  0  0  0  0  0  0
   20.8966   41.9292   -9.2903 O   0  0  0  0  0  0  0  0  0  0  0  0
   22.1016   40.2174   -8.3939 N   0  0  0  0  0  0  0  0  0  0  0  0
   20.1004   37.5720   -8.6169 H   0  0  0  0  0  0  0  0  0  0  0  0
   21.5852   38.6440   -7.2840 H   0  0  0  0  0  0  0  0  0  0  0  0
   14.4822   44.7840  -11.9838 H   0  0  0  0  0  0  0  0  0  0  0  0
   14.7800   44.1420  -10.3810 H   0  0  0  0  0  0  0  0  0  0  0  0
   15.4860   43.3535  -11.7891 H   0  0  0  0  0  0  0  0  0  0  0  0
   17.2644   44.6265  -13.2046 H   0  0  0  0  0  0  0  0  0  0  0  0
   17.8863   46.1707  -12.6353 H   0  0  0  0  0  0  0  0  0  0  0  0
   16.2420   46.0554  -13.2482 H   0  0  0  0  0  0  0  0  0  0  0  0
   15.3321   47.0672  -11.1129 H   0  0  0  0  0  0  0  0  0  0  0  0
   16.9611   47.2149  -10.4703 H   0  0  0  0  0  0  0  0  0  0  0  0
   15.7222   46.3749   -9.5473 H   0  0  0  0  0  0  0  0  0  0  0  0
   18.4191   44.2243  -11.1441 H   0  0  0  0  0  0  0  0  0  0  0  0
   18.1206   45.2416   -9.7780 H   0  0  0  0  0  0  0  0  0  0  0  0
   18.1100   41.5252  -10.6183 H   0  0  0  0  0  0  0  0  0  0  0  0
   14.7551   39.9710   -7.4274 H   0  0  0  0  0  0  0  0  0  0  0  0
   16.1127   40.1972   -6.3426 H   0  0  0  0  0  0  0  0  0  0  0  0
   15.7263   38.5898   -6.9469 H   0  0  0  0  0  0  0  0  0  0  0  0
   15.0856   39.5390   -9.8870 H   0  0  0  0  0  0  0  0  0  0  0  0
   15.9565   38.0736   -9.4534 H   0  0  0  0  0  0  0  0  0  0  0  0
   16.6901   39.2420  -10.5423 H   0  0  0  0  0  0  0  0  0  0  0  0
   17.9091   38.3383   -7.8411 H   0  0  0  0  0  0  0  0  0  0  0  0
   18.5017   38.7339  -10.1929 H   0  0  0  0  0  0  0  0  0  0  0  0
   19.1324   40.2752   -9.6698 H   0  0  0  0  0  0  0  0  0  0  0  0
   21.9140   38.2009   -9.9259 H   0  0  0  0  0  0  0  0  0  0  0  0
   19.3534   40.7009   -7.3271 H   0  0  0  0  0  0  0  0  0  0  0  0
   19.5524   39.3613   -6.2394 H   0  0  0  0  0  0  0  0  0  0  0  0
   20.0739   42.8061   -6.6919 H   0  0  0  0  0  0  0  0  0  0  0  0
   22.9671   43.3021   -3.5169 H   0  0  0  0  0  0  0  0  0  0  0  0
   23.1184   40.8393   -3.2911 H   0  0  0  0  0  0  0  0  0  0  0  0
   21.8044   39.3650   -4.7962 H   0  0  0  0  0  0  0  0  0  0  0  0
   20.6542   44.7553   -7.1141 H   0  0  0  0  0  0  0  0  0  0  0  0
   19.7837   45.4964   -5.7840 H   0  0  0  0  0  0  0  0  0  0  0  0
   20.7126   47.3136   -6.9510 H   0  0  0  0  0  0  0  0  0  0  0  0
   21.8234   47.1392   -5.6226 H   0  0  0  0  0  0  0  0  0  0  0  0
   22.2177   46.0042   -8.4453 H   0  0  0  0  0  0  0  0  0  0  0  0
   22.8764   47.5154   -7.9199 H   0  0  0  0  0  0  0  0  0  0  0  0
   24.4162   46.5255   -6.3994 H   0  0  0  0  0  0  0  0  0  0  0  0
   23.6580   44.9712   -6.4059 H   0  0  0  0  0  0  0  0  0  0  0  0
   26.5314   44.2376   -9.5616 H   0  0  0  0  0  0  0  0  0  0  0  0
   24.2543   40.6641  -10.3401 H   0  0  0  0  0  0  0  0  0  0  0  0
   22.5299   43.8204   -7.9990 H   0  0  0  0  0  0  0  0  0  0  0  0
   23.0408   39.9080   -8.1898 H   0  0  0  0  0  0  0  0  0  0  0  0
  1  2  1  0  0  0  0
  1 44  1  0  0  0  0
  1 45  1  0  0  0  0
  1 46  1  0  0  0  0
  2  3  1  0  0  0  0
  2  4  1  0  0  0  0
  2  5  1  0  0  0  0
  3 47  1  0  0  0  0
  3 48  1  0  0  0  0
  3 49  1  0  0  0  0
  4 50  1  0  0  0  0
  4 51  1  0  0  0  0
  4 52  1  0  0  0  0
  5  6  1  0  0  0  0
  5 53  1  0  0  0  0
  5 54  1  0  0  0  0
  6 10  1  0  0  0  0
  6  7  2  0  0  0  0
  7  8  1  0  0  0  0
  7 55  1  0  0  0  0
  8  9  2  0  0  0  0
  8 11  1  0  0  0  0
  9 10  1  0  0  0  0
 11 12  1  0  0  0  0
 11 13  1  0  0  0  0
 11 14  1  0  0  0  0
 12 56  1  0  0  0  0
 12 57  1  0  0  0  0
 12 58  1  0  0  0  0
 13 59  1  0  0  0  0
 13 60  1  0  0  0  0
 13 61  1  0  0  0  0
 14 15  1  0  0  0  0
 14 62  1  0  0  0  0
 15 16  1  0  0  0  0
 15 63  1  0  0  0  0
 15 64  1  0  0  0  0
 16 42  1  1  0  0  0
 16 17  1  0  0  0  0
 16 18  1  0  0  0  0
 17 65  1  0  0  0  0
 18 43  1  1  0  0  0
 18 41  1  0  0  0  0
 18 19  1  0  0  0  0
 19 20  1  0  0  0  0
 19 66  1  0  0  0  0
 19 67  1  0  0  0  0
 20 25  1  0  0  0  0
 20 21  2  0  0  0  0
 21 22  1  0  0  0  0
 21 68  1  0  0  0  0
 22 23  2  0  0  0  0
 22 26  1  0  0  0  0
 23 24  1  0  0  0  0
 23 69  1  0  0  0  0
 24 25  2  0  0  0  0
 24 70  1  0  0  0  0
 25 71  1  0  0  0  0
 26 27  1  0  0  0  0
 27 28  1  0  0  0  0
 27 72  1  0  0  0  0
 27 73  1  0  0  0  0
 28 29  1  0  0  0  0
 28 74  1  0  0  0  0
 28 75  1  0  0  0  0
 29 30  1  0  0  0  0
 29 76  1  0  0  0  0
 29 77  1  0  0  0  0
 30 31  1  0  0  0  0
 30 78  1  0  0  0  0
 30 79  1  0  0  0  0
 31 32  1  0  0  0  0
 32 38  1  0  0  0  0
 32 33  2  0  0  0  0
 33 34  1  0  0  0  0
 33 80  1  0  0  0  0
 34 35  1  0  0  0  0
 34 36  2  0  0  0  0
 36 37  1  0  0  0  0
 36 81  1  0  0  0  0
 37 38  2  0  0  0  0
 37 39  1  0  0  0  0
 38 82  1  0  0  0  0
 39 40  2  0  0  0  0
 39 41  1  0  0  0  0
 41 83  1  0  0  0  0
M  END
>  <s_m_source_file>
BACE_96.smi

>  <i_m_source_file_index>
1

>  <i_lp_mmshare_version>
42013

>  <i_f3d_flags>
0

>  <s_epik_input>
W0NIM11DKFtDSDNdKShbQ0gzXSlbQ0gyXWMxW2NIXWMobm8xKUMoW0NIM10pKFtDSDNdKVtOSF1bQ0gyXVtDQEBIXShbT0hdKVtDQEhdKFtDSDJdMilbTkhdQyg9TyljKFtjSF0zKVtjSF1jKENsKVtjSF1jM09bQ0gyXVtDSDJdW0NIMl1bQ0gyXU9jKFtjSF1jMjQpW2NIXVtjSF1bY0hdNA==

>  <s_epik_cmdline>
J2VwaWtfcHl0aG9uJywgJy1waCcsICc3LjAnLCAnLXRuJywgJzgnLCAnLW1hJywgJzIwMCcsICctaW1hZScsICc8aW5maWxlLm1hZT4nLCAnLW9tYWUnLCAnPG91dGZpbGUubWFlPic=

>  <r_lp_tautomer_probability>
1

>  <r_epik_Ionization_Penalty>
0.6542

>  <r_epik_Ionization_Penalty_Charging>
0.0000

>  <r_epik_Ionization_Penalty_Neutral>
0.6542

>  <r_epik_State_Penalty>
0.6730

>  <r_epik_Charging_Adjusted_Penalty>
0.67299

>  <i_epik_Tot_Q>
0

>  <i_epik_Tot_abs_Q>
0

>  <s_lp_Force_Field>
OPLS_2005

>  <r_lp_Energy>
41.8767

>  <b_lp_Chiralities_Consistent>
1

>  <s_lp_Variant>
BACE_96.smi:1-2

>  <chiral flag>
1

>  <version>
0

>  <s_i_glide_gridfile>
second_dock_grid_2

>  <i_i_glide_lignum>
195

>  <i_i_glide_rotatable_bonds>
8

>  <r_i_docking_score>
-2.67868

>  <r_i_glide_ligand_efficiency>
-0.0653336

>  <r_i_glide_ligand_efficiency_sa>
-0.225284

>  <r_i_glide_ligand_efficiency_ln>
-0.56829

>  <r_glide_XP_GScore>
-3.35168

>  <r_i_glide_gscore>
-3.35168

>  <r_i_glide_evdw>
-43.7961

>  <r_i_glide_ecoul>
0.215171

>  <r_i_glide_energy>
-43.581

>  <r_i_glide_einternal>
11.3995

>  <r_i_glide_emodel>
-55.9587

>  <r_glide_XP_HBond>
0

>  <i_i_glide_confnum>
1

>  <i_i_glide_posenum>
12

>  <r_i_glide_eff_state_penalty>
0.673

>  <i_glide_XP_PoseRank>
1

$$$$
