BACE_66.smi:1
 OpenBabel09291822493D
Structure written by MMmdl.
 83 85  0  0  1  0  0  0  0  0999 V2000
   28.2211   46.1163   -9.9944 C   0  0  0  0  0  0  0  0  0  0  0  0
   27.6932   45.1067   -8.9600 C   0  0  0  0  0  0  0  0  0  0  0  0
   28.7049   44.8753   -7.8272 C   0  0  0  0  0  0  0  0  0  0  0  0
   27.2690   43.7938   -9.6061 C   0  0  0  0  0  0  0  0  0  0  0  0
   25.9499   43.3238   -9.4424 C   0  0  0  0  0  0  0  0  0  0  0  0
   25.5470   42.1011  -10.0258 C   0  0  0  0  0  0  0  0  0  0  0  0
   24.1252   41.6192   -9.8691 C   0  0  0  0  0  0  0  0  0  0  0  0
   23.9609   40.5537   -8.8530 N   0  3  0  0  0  0  0  0  0  0  0  0
   22.5385   40.2857   -8.5239 C   0  0  0  0  0  0  0  0  0  0  0  0
   21.8107   39.5187   -9.6541 C   0  0  1  0  0  0  0  0  0  0  0  0
   22.0600   38.1501   -9.4308 O   0  0  0  0  0  0  0  0  0  0  0  0
   20.2781   39.7997   -9.7326 C   0  0  2  0  0  0  0  0  0  0  0  0
   19.3954   38.7574   -9.0023 C   0  0  0  0  0  0  0  0  0  0  0  0
   17.9269   39.1752   -8.7412 C   0  0  2  0  0  0  0  0  0  0  0  0
   17.4320   38.5433   -7.4268 C   0  0  0  0  0  0  0  0  0  0  0  0
   16.9842   38.8233   -9.9195 C   0  0  0  0  0  0  0  0  0  0  0  0
   15.5651   39.4180   -9.8094 C   0  0  0  0  0  0  0  0  0  0  0  0
   15.5904   40.9311   -9.8188 C   0  0  0  0  0  0  0  0  0  0  0  0
   15.4141   41.7054   -8.7346 C   0  0  0  0  0  0  0  0  0  0  0  0
   15.5648   43.2108   -8.7571 C   0  0  0  0  0  0  0  0  0  0  0  0
   16.9692   43.6436   -8.2863 C   0  0  0  0  0  0  0  0  0  0  0  0
   17.5736   44.7358   -9.1865 C   0  0  0  0  0  0  0  0  0  0  0  0
   19.0088   44.9021   -8.9949 N   0  0  0  0  0  0  0  0  0  0  0  0
   19.8885   44.2270   -9.8594 C   0  0  0  0  0  0  0  0  0  0  0  0
   21.1276   44.8286  -10.1622 C   0  0  0  0  0  0  0  0  0  0  0  0
   22.0244   44.2133  -11.0589 C   0  0  0  0  0  0  0  0  0  0  0  0
   23.3468   44.8783  -11.3915 C   0  0  0  0  0  0  0  0  0  0  0  0
   23.2384   45.8118  -12.4410 O   0  0  0  0  0  0  0  0  0  0  0  0
   21.6929   42.9721  -11.6384 C   0  0  0  0  0  0  0  0  0  0  0  0
   20.4826   42.3334  -11.3064 C   0  0  0  0  0  0  0  0  0  0  0  0
   19.5728   42.9771  -10.4413 C   0  0  0  0  0  0  0  0  0  0  0  0
   20.1246   41.0224  -11.9413 C   0  0  0  0  0  0  0  0  0  0  0  0
   20.0604   40.9469  -13.1662 O   0  0  0  0  0  0  0  0  0  0  0  0
   19.8847   39.9660  -11.1385 N   0  0  0  0  0  0  0  0  0  0  0  0
   26.4635   41.3577  -10.7895 C   0  0  0  0  0  0  0  0  0  0  0  0
   27.7788   41.8262  -10.9668 C   0  0  0  0  0  0  0  0  0  0  0  0
   28.1837   43.0346  -10.3687 C   0  0  0  0  0  0  0  0  0  0  0  0
   22.2640   39.7567  -10.6166 H   0  0  0  0  0  0  0  0  0  0  0  0
   20.0921   40.7400   -9.2217 H   0  0  0  0  0  0  0  0  0  0  0  0
   17.9192   40.2559   -8.5888 H   0  0  0  0  0  0  0  0  0  0  0  0
   27.4750   46.3168  -10.7642 H   0  0  0  0  0  0  0  0  0  0  0  0
   29.1241   45.7563  -10.4883 H   0  0  0  0  0  0  0  0  0  0  0  0
   28.4658   47.0687   -9.5195 H   0  0  0  0  0  0  0  0  0  0  0  0
   26.8067   45.5545   -8.5114 H   0  0  0  0  0  0  0  0  0  0  0  0
   28.2898   44.2150   -7.0650 H   0  0  0  0  0  0  0  0  0  0  0  0
   28.9667   45.8162   -7.3387 H   0  0  0  0  0  0  0  0  0  0  0  0
   29.6267   44.4264   -8.1978 H   0  0  0  0  0  0  0  0  0  0  0  0
   25.2449   43.9008   -8.8633 H   0  0  0  0  0  0  0  0  0  0  0  0
   23.5114   42.4710   -9.5856 H   0  0  0  0  0  0  0  0  0  0  0  0
   23.7769   41.2784  -10.8407 H   0  0  0  0  0  0  0  0  0  0  0  0
   24.3966   39.6940   -9.1909 H   0  0  0  0  0  0  0  0  0  0  0  0
   22.4812   39.7343   -7.5823 H   0  0  0  0  0  0  0  0  0  0  0  0
   22.0533   41.2437   -8.3279 H   0  0  0  0  0  0  0  0  0  0  0  0
   22.9643   37.9576   -9.6400 H   0  0  0  0  0  0  0  0  0  0  0  0
   19.4273   37.7921   -9.5140 H   0  0  0  0  0  0  0  0  0  0  0  0
   19.8678   38.5777   -8.0338 H   0  0  0  0  0  0  0  0  0  0  0  0
   17.4296   37.4569   -7.4927 H   0  0  0  0  0  0  0  0  0  0  0  0
   16.4244   38.8626   -7.1664 H   0  0  0  0  0  0  0  0  0  0  0  0
   18.0642   38.8230   -6.5839 H   0  0  0  0  0  0  0  0  0  0  0  0
   17.4161   39.1675  -10.8577 H   0  0  0  0  0  0  0  0  0  0  0  0
   16.9085   37.7385  -10.0192 H   0  0  0  0  0  0  0  0  0  0  0  0
   14.9596   39.0861  -10.6530 H   0  0  0  0  0  0  0  0  0  0  0  0
   15.0533   39.0586   -8.9181 H   0  0  0  0  0  0  0  0  0  0  0  0
   15.8305   41.3909  -10.7657 H   0  0  0  0  0  0  0  0  0  0  0  0
   15.2274   41.2509   -7.7693 H   0  0  0  0  0  0  0  0  0  0  0  0
   15.3806   43.5546   -9.7750 H   0  0  0  0  0  0  0  0  0  0  0  0
   14.7906   43.6620   -8.1326 H   0  0  0  0  0  0  0  0  0  0  0  0
   16.9263   43.9834   -7.2512 H   0  0  0  0  0  0  0  0  0  0  0  0
   17.6302   42.7785   -8.2710 H   0  0  0  0  0  0  0  0  0  0  0  0
   17.3774   44.5130  -10.2354 H   0  0  0  0  0  0  0  0  0  0  0  0
   17.0781   45.6860   -8.9893 H   0  0  0  0  0  0  0  0  0  0  0  0
   19.3093   45.7986   -8.6412 H   0  0  0  0  0  0  0  0  0  0  0  0
   21.3869   45.7792   -9.7230 H   0  0  0  0  0  0  0  0  0  0  0  0
   23.7352   45.3865  -10.5105 H   0  0  0  0  0  0  0  0  0  0  0  0
   24.0840   44.1263  -11.6701 H   0  0  0  0  0  0  0  0  0  0  0  0
   22.6138   46.4735  -12.1969 H   0  0  0  0  0  0  0  0  0  0  0  0
   22.3755   42.5023  -12.3344 H   0  0  0  0  0  0  0  0  0  0  0  0
   18.6305   42.4953  -10.2283 H   0  0  0  0  0  0  0  0  0  0  0  0
   19.5591   39.1287  -11.6030 H   0  0  0  0  0  0  0  0  0  0  0  0
   26.1673   40.4187  -11.2394 H   0  0  0  0  0  0  0  0  0  0  0  0
   28.4774   41.2476  -11.5543 H   0  0  0  0  0  0  0  0  0  0  0  0
   29.2017   43.3724  -10.5009 H   0  0  0  0  0  0  0  0  0  0  0  0
   24.4350   40.8488   -8.0131 H   0  0  0  0  0  0  0  0  0  0  0  0
  1  2  1  0  0  0  0
  1 41  1  0  0  0  0
  1 42  1  0  0  0  0
  1 43  1  0  0  0  0
  2  3  1  0  0  0  0
  2  4  1  0  0  0  0
  2 44  1  0  0  0  0
  3 45  1  0  0  0  0
  3 46  1  0  0  0  0
  3 47  1  0  0  0  0
  4 37  1  0  0  0  0
  4  5  2  0  0  0  0
  5  6  1  0  0  0  0
  5 48  1  0  0  0  0
  6  7  1  0  0  0  0
  6 35  2  0  0  0  0
  7  8  1  0  0  0  0
  7 49  1  0  0  0  0
  7 50  1  0  0  0  0
  8  9  1  0  0  0  0
  8 51  1  0  0  0  0
  8 83  1  0  0  0  0
  9 10  1  0  0  0  0
  9 52  1  0  0  0  0
  9 53  1  0  0  0  0
 10 38  1  6  0  0  0
 10 11  1  0  0  0  0
 10 12  1  0  0  0  0
 11 54  1  0  0  0  0
 12 39  1  1  0  0  0
 12 34  1  0  0  0  0
 12 13  1  0  0  0  0
 13 14  1  0  0  0  0
 13 55  1  0  0  0  0
 13 56  1  0  0  0  0
 14 40  1  1  0  0  0
 14 15  1  0  0  0  0
 14 16  1  0  0  0  0
 15 57  1  0  0  0  0
 15 58  1  0  0  0  0
 15 59  1  0  0  0  0
 16 17  1  0  0  0  0
 16 60  1  0  0  0  0
 16 61  1  0  0  0  0
 17 18  1  0  0  0  0
 17 62  1  0  0  0  0
 17 63  1  0  0  0  0
 18 19  2  0  0  0  0
 18 64  1  0  0  0  0
 19 20  1  0  0  0  0
 19 65  1  0  0  0  0
 20 21  1  0  0  0  0
 20 66  1  0  0  0  0
 20 67  1  0  0  0  0
 21 22  1  0  0  0  0
 21 68  1  0  0  0  0
 21 69  1  0  0  0  0
 22 23  1  0  0  0  0
 22 70  1  0  0  0  0
 22 71  1  0  0  0  0
 23 24  1  0  0  0  0
 23 72  1  0  0  0  0
 24 31  1  0  0  0  0
 24 25  2  0  0  0  0
 25 26  1  0  0  0  0
 25 73  1  0  0  0  0
 26 27  1  0  0  0  0
 26 29  2  0  0  0  0
 27 28  1  0  0  0  0
 27 74  1  0  0  0  0
 27 75  1  0  0  0  0
 28 76  1  0  0  0  0
 29 30  1  0  0  0  0
 29 77  1  0  0  0  0
 30 31  2  0  0  0  0
 30 32  1  0  0  0  0
 31 78  1  0  0  0  0
 32 33  2  0  0  0  0
 32 34  1  0  0  0  0
 34 79  1  0  0  0  0
 35 36  1  0  0  0  0
 35 80  1  0  0  0  0
 36 37  2  0  0  0  0
 36 81  1  0  0  0  0
 37 82  1  0  0  0  0
M  CHG  1   8   1
M  END
>  <s_m_source_file>
BACE_66.smi

>  <i_m_source_file_index>
1

>  <i_lp_mmshare_version>
42013

>  <i_f3d_flags>
0

>  <s_epik_input>
W0NIM11bQ0hdKFtDSDNdKWMxW2NIXWMoW2NIXVtjSF1bY0hdMSlbQ0gyXVtOSF1bQ0gyXVtDQEBIXShbT0hdKVtDQEBIXShbTkhdQyg9TyljKFtjSF0yKVtjSF1jKFtjSF1jMjMpW0NIMl1bT0hdKVtDSDJdW0NASF0oW0NIM10pW0NIMl1bQ0gyXS9bQ0hdPVtDSF0vW0NIMl1bQ0gyXVtDSDJdW05IXTM=

>  <s_epik_cmdline>
J2VwaWtfcHl0aG9uJywgJy1waCcsICc3LjAnLCAnLXRuJywgJzgnLCAnLW1hJywgJzIwMCcsICctaW1hZScsICc8aW5maWxlLm1hZT4nLCAnLW9tYWUnLCAnPG91dGZpbGUubWFlPic=

>  <r_epik_Ionization_Penalty>
0.0171

>  <r_epik_Ionization_Penalty_Charging>
0.0166

>  <r_epik_Ionization_Penalty_Neutral>
0.0005

>  <r_epik_State_Penalty>
0.0131

>  <r_epik_Charging_Adjusted_Penalty>
0.0296672

>  <i_epik_Tot_Q>
1

>  <i_epik_Tot_abs_Q>
1

>  <s_lp_Force_Field>
OPLS_2005

>  <r_lp_Energy>
32.3625

>  <b_lp_Chiralities_Consistent>
1

>  <s_lp_Variant>
BACE_66.smi:1-1

>  <chiral flag>
1

>  <version>
0

>  <s_i_glide_gridfile>
second_dock_grid_2

>  <i_i_glide_lignum>
131

>  <i_i_glide_rotatable_bonds>
9

>  <r_i_docking_score>
-4.82136

>  <r_i_glide_ligand_efficiency>
-0.130307

>  <r_i_glide_ligand_efficiency_sa>
-0.434212

>  <r_i_glide_ligand_efficiency_ln>
-1.04564

>  <r_glide_XP_GScore>
-4.83446

>  <r_i_glide_gscore>
-4.83446

>  <r_i_glide_evdw>
-35.7795

>  <r_i_glide_ecoul>
-13.1943

>  <r_i_glide_energy>
-48.9738

>  <r_i_glide_einternal>
4.57484

>  <r_i_glide_emodel>
-71.4281

>  <r_glide_XP_HBond>
-0.745093

>  <i_i_glide_confnum>
1

>  <i_i_glide_posenum>
11

>  <r_i_glide_eff_state_penalty>
0.0131

>  <i_glide_XP_PoseRank>
1

$$$$
