BACE_115.smi:1
 OpenBabel09291822493D
Structure written by MMmdl.
 82 85  0  0  1  0  0  0  0  0999 V2000
   20.7172   40.6062   -6.4869 C   0  0  0  0  0  0  0  0  0  0  0  0
   20.6709   39.1643   -7.0069 C   0  0  0  0  0  0  0  0  0  0  0  0
   22.0496   38.7921   -7.5737 C   0  0  0  0  0  0  0  0  0  0  0  0
   19.5199   38.9710   -7.9954 C   0  0  0  0  0  0  0  0  0  0  0  0
   19.7332   38.5384   -9.3232 C   0  0  0  0  0  0  0  0  0  0  0  0
   18.6630   38.4944  -10.2294 C   0  0  0  0  0  0  0  0  0  0  0  0
   17.3892   38.9481   -9.8467 C   0  0  0  0  0  0  0  0  0  0  0  0
   17.1500   39.3932   -8.5256 C   0  0  0  0  0  0  0  0  0  0  0  0
   18.2086   39.2993   -7.5901 C   0  0  0  0  0  0  0  0  0  0  0  0
   15.7978   40.0033   -8.1038 C   0  0  0  0  0  0  0  0  0  0  0  0
   14.9269   40.3964   -9.3179 C   0  0  0  0  0  0  0  0  0  0  0  0
   15.0157   38.9504   -7.2950 C   0  0  0  0  0  0  0  0  0  0  0  0
   15.9635   41.2113   -7.2400 N   0  3  0  0  0  0  0  0  0  0  0  0
   17.0206   42.2256   -7.5209 C   0  0  0  0  0  0  0  0  0  0  0  0
   16.6738   43.3268   -8.5428 C   0  0  1  0  0  0  0  0  0  0  0  0
   15.5592   44.0375   -8.0407 O   0  0  0  0  0  0  0  0  0  0  0  0
   17.8228   44.3507   -8.8418 C   0  0  2  0  0  0  0  0  0  0  0  0
   18.1759   44.4266  -10.3473 C   0  0  0  0  0  0  0  0  0  0  0  0
   19.1018   43.3309  -10.8673 C   0  0  0  0  0  0  0  0  0  0  0  0
   18.5616   42.1607  -11.4431 C   0  0  0  0  0  0  0  0  0  0  0  0
   19.4123   41.1801  -11.9860 C   0  0  0  0  0  0  0  0  0  0  0  0
   20.8100   41.3498  -11.9419 C   0  0  0  0  0  0  0  0  0  0  0  0
   21.3620   42.5146  -11.3694 C   0  0  0  0  0  0  0  0  0  0  0  0
   22.8674   42.7324  -11.4129 C   0  0  0  0  0  0  0  0  0  0  0  0
   23.6773   41.7688  -10.5244 C   0  0  0  0  0  0  0  0  0  0  0  0
   23.5321   42.0052   -9.0134 C   0  0  0  0  0  0  0  0  0  0  0  0
   24.1532   43.3311   -8.5363 C   0  0  0  0  0  0  0  0  0  0  0  0
   24.1462   43.4629   -7.0848 N   0  0  0  0  0  0  0  0  0  0  0  0
   22.9468   43.5802   -6.3679 C   0  0  0  0  0  0  0  0  0  0  0  0
   22.9491   43.2248   -5.0040 C   0  0  0  0  0  0  0  0  0  0  0  0
   21.7666   43.3038   -4.2442 C   0  0  0  0  0  0  0  0  0  0  0  0
   20.5725   43.7502   -4.8412 C   0  0  0  0  0  0  0  0  0  0  0  0
   20.5561   44.1195   -6.2032 C   0  0  0  0  0  0  0  0  0  0  0  0
   21.7474   44.0385   -6.9590 C   0  0  0  0  0  0  0  0  0  0  0  0
   19.2884   44.6088   -6.8324 C   0  0  0  0  0  0  0  0  0  0  0  0
   18.5204   45.3501   -6.2193 O   0  0  0  0  0  0  0  0  0  0  0  0
   19.0365   44.1179   -8.0559 N   0  0  0  0  0  0  0  0  0  0  0  0
   20.5046   43.5010  -10.8338 C   0  0  0  0  0  0  0  0  0  0  0  0
   16.3663   42.8701   -9.4796 H   0  0  0  0  0  0  0  0  0  0  0  0
   17.4552   45.3472   -8.5863 H   0  0  0  0  0  0  0  0  0  0  0  0
   19.8096   40.8746   -5.9510 H   0  0  0  0  0  0  0  0  0  0  0  0
   20.8313   41.3133   -7.3065 H   0  0  0  0  0  0  0  0  0  0  0  0
   21.5502   40.7483   -5.7986 H   0  0  0  0  0  0  0  0  0  0  0  0
   20.4683   38.5149   -6.1580 H   0  0  0  0  0  0  0  0  0  0  0  0
   22.0600   37.7500   -7.8798 H   0  0  0  0  0  0  0  0  0  0  0  0
   22.8352   38.9452   -6.8355 H   0  0  0  0  0  0  0  0  0  0  0  0
   22.3065   39.3970   -8.4439 H   0  0  0  0  0  0  0  0  0  0  0  0
   20.7112   38.2506   -9.6797 H   0  0  0  0  0  0  0  0  0  0  0  0
   18.8334   38.1545  -11.2407 H   0  0  0  0  0  0  0  0  0  0  0  0
   16.6112   38.9498  -10.5941 H   0  0  0  0  0  0  0  0  0  0  0  0
   18.0394   39.5971   -6.5661 H   0  0  0  0  0  0  0  0  0  0  0  0
   14.5496   39.5208   -9.8465 H   0  0  0  0  0  0  0  0  0  0  0  0
   15.4682   40.9996  -10.0434 H   0  0  0  0  0  0  0  0  0  0  0  0
   14.0595   40.9717   -9.0039 H   0  0  0  0  0  0  0  0  0  0  0  0
   14.7763   38.0830   -7.9098 H   0  0  0  0  0  0  0  0  0  0  0  0
   14.0712   39.3459   -6.9153 H   0  0  0  0  0  0  0  0  0  0  0  0
   15.5806   38.5684   -6.4406 H   0  0  0  0  0  0  0  0  0  0  0  0
   15.0742   41.6731   -7.1041 H   0  0  0  0  0  0  0  0  0  0  0  0
   17.2008   42.7180   -6.5691 H   0  0  0  0  0  0  0  0  0  0  0  0
   17.9640   41.7655   -7.7982 H   0  0  0  0  0  0  0  0  0  0  0  0
   15.6585   44.1261   -7.0958 H   0  0  0  0  0  0  0  0  0  0  0  0
   17.2669   44.4540  -10.9494 H   0  0  0  0  0  0  0  0  0  0  0  0
   18.6691   45.3801  -10.5393 H   0  0  0  0  0  0  0  0  0  0  0  0
   17.4922   42.0160  -11.4880 H   0  0  0  0  0  0  0  0  0  0  0  0
   18.9939   40.2938  -12.4411 H   0  0  0  0  0  0  0  0  0  0  0  0
   21.4582   40.5977  -12.3715 H   0  0  0  0  0  0  0  0  0  0  0  0
   23.1790   42.5948  -12.4497 H   0  0  0  0  0  0  0  0  0  0  0  0
   23.1040   43.7691  -11.1734 H   0  0  0  0  0  0  0  0  0  0  0  0
   23.4018   40.7398  -10.7599 H   0  0  0  0  0  0  0  0  0  0  0  0
   24.7320   41.8499  -10.7878 H   0  0  0  0  0  0  0  0  0  0  0  0
   22.4792   41.9547   -8.7436 H   0  0  0  0  0  0  0  0  0  0  0  0
   24.0211   41.1816   -8.4907 H   0  0  0  0  0  0  0  0  0  0  0  0
   25.1944   43.3745   -8.8601 H   0  0  0  0  0  0  0  0  0  0  0  0
   23.6613   44.1893   -8.9920 H   0  0  0  0  0  0  0  0  0  0  0  0
   24.9633   43.1271   -6.5928 H   0  0  0  0  0  0  0  0  0  0  0  0
   23.8594   42.8852   -4.5300 H   0  0  0  0  0  0  0  0  0  0  0  0
   21.7775   43.0266   -3.2005 H   0  0  0  0  0  0  0  0  0  0  0  0
   19.6704   43.7960   -4.2477 H   0  0  0  0  0  0  0  0  0  0  0  0
   21.7348   44.3344   -7.9959 H   0  0  0  0  0  0  0  0  0  0  0  0
   19.7273   43.5026   -8.4636 H   0  0  0  0  0  0  0  0  0  0  0  0
   20.9235   44.4053  -10.4191 H   0  0  0  0  0  0  0  0  0  0  0  0
   16.2192   40.8437   -6.3315 H   0  0  0  0  0  0  0  0  0  0  0  0
  1  2  1  0  0  0  0
  1 41  1  0  0  0  0
  1 42  1  0  0  0  0
  1 43  1  0  0  0  0
  2  3  1  0  0  0  0
  2  4  1  0  0  0  0
  2 44  1  0  0  0  0
  3 45  1  0  0  0  0
  3 46  1  0  0  0  0
  3 47  1  0  0  0  0
  4  9  1  0  0  0  0
  4  5  2  0  0  0  0
  5  6  1  0  0  0  0
  5 48  1  0  0  0  0
  6  7  2  0  0  0  0
  6 49  1  0  0  0  0
  7  8  1  0  0  0  0
  7 50  1  0  0  0  0
  8  9  2  0  0  0  0
  8 10  1  0  0  0  0
  9 51  1  0  0  0  0
 10 11  1  0  0  0  0
 10 12  1  0  0  0  0
 10 13  1  0  0  0  0
 11 52  1  0  0  0  0
 11 53  1  0  0  0  0
 11 54  1  0  0  0  0
 12 55  1  0  0  0  0
 12 56  1  0  0  0  0
 12 57  1  0  0  0  0
 13 14  1  0  0  0  0
 13 58  1  0  0  0  0
 13 82  1  0  0  0  0
 14 15  1  0  0  0  0
 14 59  1  0  0  0  0
 14 60  1  0  0  0  0
 15 39  1  6  0  0  0
 15 16  1  0  0  0  0
 15 17  1  0  0  0  0
 16 61  1  0  0  0  0
 17 40  1  1  0  0  0
 17 37  1  0  0  0  0
 17 18  1  0  0  0  0
 18 19  1  0  0  0  0
 18 62  1  0  0  0  0
 18 63  1  0  0  0  0
 19 38  1  0  0  0  0
 19 20  2  0  0  0  0
 20 21  1  0  0  0  0
 20 64  1  0  0  0  0
 21 22  2  0  0  0  0
 21 65  1  0  0  0  0
 22 23  1  0  0  0  0
 22 66  1  0  0  0  0
 23 24  1  0  0  0  0
 23 38  2  0  0  0  0
 24 25  1  0  0  0  0
 24 67  1  0  0  0  0
 24 68  1  0  0  0  0
 25 26  1  0  0  0  0
 25 69  1  0  0  0  0
 25 70  1  0  0  0  0
 26 27  1  0  0  0  0
 26 71  1  0  0  0  0
 26 72  1  0  0  0  0
 27 28  1  0  0  0  0
 27 73  1  0  0  0  0
 27 74  1  0  0  0  0
 28 29  1  0  0  0  0
 28 75  1  0  0  0  0
 29 34  1  0  0  0  0
 29 30  2  0  0  0  0
 30 31  1  0  0  0  0
 30 76  1  0  0  0  0
 31 32  2  0  0  0  0
 31 77  1  0  0  0  0
 32 33  1  0  0  0  0
 32 78  1  0  0  0  0
 33 34  2  0  0  0  0
 33 35  1  0  0  0  0
 34 79  1  0  0  0  0
 35 36  2  0  0  0  0
 35 37  1  0  0  0  0
 37 80  1  0  0  0  0
 38 81  1  0  0  0  0
M  CHG  1  13   1
M  END
>  <s_m_source_file>
BACE_115.smi

>  <i_m_source_file_index>
1

>  <i_lp_mmshare_version>
42013

>  <i_f3d_flags>
0

>  <s_epik_input>
W0NIM11bQ0hdKFtDSDNdKWMxW2NIXVtjSF1bY0hdYyhbY0hdMSlDKFtDSDNdKShbQ0gzXSlbTkhdW0NIMl1bQ0BASF0oW09IXSlbQ0BIXShbQ0gyXTIpW05IXUMoPU8pYyhbY0hdMylbY0hdW2NIXVtjSF1jM1tOSF1bQ0gyXVtDSDJdW0NIMl1bQ0gyXWMoW2NIXTQpW2NIXVtjSF1bY0hdYzI0

>  <s_epik_cmdline>
J2VwaWtfcHl0aG9uJywgJy1waCcsICc3LjAnLCAnLXRuJywgJzgnLCAnLW1hJywgJzIwMCcsICctaW1hZScsICc8aW5maWxlLm1hZT4nLCAnLW9tYWUnLCAnPG91dGZpbGUubWFlPic=

>  <r_epik_Ionization_Penalty>
0.0197

>  <r_epik_Ionization_Penalty_Charging>
0.0191

>  <r_epik_Ionization_Penalty_Neutral>
0.0006

>  <r_epik_State_Penalty>
0.0153

>  <r_epik_Charging_Adjusted_Penalty>
0.0343718

>  <i_epik_Tot_Q>
1

>  <i_epik_Tot_abs_Q>
1

>  <s_lp_Force_Field>
OPLS_2005

>  <r_lp_Energy>
33.0906

>  <b_lp_Chiralities_Consistent>
1

>  <s_lp_Variant>
BACE_115.smi:1-1

>  <chiral flag>
1

>  <version>
0

>  <s_i_glide_gridfile>
second_dock_grid_2

>  <i_i_glide_lignum>
234

>  <i_i_glide_rotatable_bonds>
7

>  <r_i_docking_score>
-6.16131

>  <r_i_glide_ligand_efficiency>
-0.16214

>  <r_i_glide_ligand_efficiency_sa>
-0.54511

>  <r_i_glide_ligand_efficiency_ln>
-1.32856

>  <r_glide_XP_GScore>
-6.17661

>  <r_i_glide_gscore>
-6.17661

>  <r_i_glide_evdw>
-38.6649

>  <r_i_glide_ecoul>
-16.9065

>  <r_i_glide_energy>
-55.5714

>  <r_i_glide_einternal>
12.6532

>  <r_i_glide_emodel>
-70.044

>  <r_glide_XP_HBond>
-0.48

>  <i_i_glide_confnum>
1

>  <i_i_glide_posenum>
11

>  <r_i_glide_eff_state_penalty>
0.0153

>  <i_glide_XP_PoseRank>
1

$$$$
