BACE_107.smi:1
 OpenBabel09291822493D
Structure written by MMmdl.
 83 86  0  0  1  0  0  0  0  0999 V2000
   22.8006   43.8521    2.2877 C   0  0  0  0  0  0  0  0  0  0  0  0
   22.7053   44.3233    0.8274 C   0  0  0  0  0  0  0  0  0  0  0  0
   22.4600   45.8275    0.7454 C   0  0  0  0  0  0  0  0  0  0  0  0
   21.6824   43.5830   -0.0120 C   0  0  0  0  0  0  0  0  0  0  0  0
   20.4632   43.1505    0.5313 C   0  0  0  0  0  0  0  0  0  0  0  0
   19.5516   42.4594   -0.2685 C   0  0  0  0  0  0  0  0  0  0  0  0
   19.8504   42.1586   -1.6056 C   0  0  0  0  0  0  0  0  0  0  0  0
   21.0670   42.5811   -2.1813 C   0  0  0  0  0  0  0  0  0  0  0  0
   21.9578   43.3282   -1.3716 C   0  0  0  0  0  0  0  0  0  0  0  0
   21.3328   42.3413   -3.6734 C   0  0  0  0  0  0  0  0  0  0  0  0
   22.8120   42.5695   -4.0623 C   0  0  0  0  0  0  0  0  0  0  0  0
   20.9823   40.8767   -4.0508 C   0  0  0  0  0  0  0  0  0  0  0  0
   20.4889   43.3135   -4.3908 N   0  0  0  0  0  0  0  0  0  0  0  0
   20.3459   43.1417   -5.8348 C   0  0  0  0  0  0  0  0  0  0  0  0
   19.6121   44.3446   -6.4695 C   0  0  1  0  0  0  0  0  0  0  0  0
   20.5632   45.3118   -6.8642 O   0  0  0  0  0  0  0  0  0  0  0  0
   18.7260   44.0024   -7.6963 C   0  0  2  0  0  0  0  0  0  0  0  0
   17.2889   43.6659   -7.2485 C   0  0  0  0  0  0  0  0  0  0  0  0
   16.4098   43.0168   -8.3008 C   0  0  0  0  0  0  0  0  0  0  0  0
   15.9562   43.7683   -9.3968 C   0  0  0  0  0  0  0  0  0  0  0  0
   15.1418   43.1668  -10.3710 C   0  0  0  0  0  0  0  0  0  0  0  0
   14.5403   44.1515  -11.6498 Cl  0  0  0  0  0  0  0  0  0  0  0  0
   14.8028   41.7992  -10.2779 C   0  0  0  0  0  0  0  0  0  0  0  0
   14.0600   41.2182  -11.2684 O   0  0  0  0  0  0  0  0  0  0  0  0
   15.2179   41.0465   -9.1527 C   0  0  0  0  0  0  0  0  0  0  0  0
   14.8148   39.5836   -8.9715 C   0  0  0  0  0  0  0  0  0  0  0  0
   15.7801   38.5841   -9.6419 C   0  0  0  0  0  0  0  0  0  0  0  0
   17.2061   38.6458   -9.0711 C   0  0  0  0  0  0  0  0  0  0  0  0
   18.2025   37.6904   -9.7560 C   0  0  0  0  0  0  0  0  0  0  0  0
   19.5385   37.9498   -9.3237 O   0  0  0  0  0  0  0  0  0  0  0  0
   20.0938   39.0693   -9.8891 C   0  0  0  0  0  0  0  0  0  0  0  0
   20.1409   40.2685   -9.1585 C   0  0  0  0  0  0  0  0  0  0  0  0
   20.5155   41.4519   -9.8293 C   0  0  0  0  0  0  0  0  0  0  0  0
   20.9412   41.3622  -11.1667 C   0  0  0  0  0  0  0  0  0  0  0  0
   20.8938   40.1049  -11.7969 C   0  0  0  0  0  0  0  0  0  0  0  0
   21.2601   39.9730  -13.2520 C   0  0  0  0  0  0  0  0  0  0  0  0
   20.4603   38.9824  -11.1862 N   0  0  0  0  0  0  0  0  0  0  0  0
   20.3618   42.7805   -9.1619 C   0  0  0  0  0  0  0  0  0  0  0  0
   21.1616   43.7043   -9.3156 O   0  0  0  0  0  0  0  0  0  0  0  0
   19.2363   42.8618   -8.4445 N   0  0  0  0  0  0  0  0  0  0  0  0
   16.0160   41.6674   -8.1673 C   0  0  0  0  0  0  0  0  0  0  0  0
   18.9882   44.8329   -5.7192 H   0  0  0  0  0  0  0  0  0  0  0  0
   18.6664   44.8555   -8.3739 H   0  0  0  0  0  0  0  0  0  0  0  0
   22.9065   42.7679    2.3527 H   0  0  0  0  0  0  0  0  0  0  0  0
   21.9243   44.1499    2.8630 H   0  0  0  0  0  0  0  0  0  0  0  0
   23.6653   44.2914    2.7869 H   0  0  0  0  0  0  0  0  0  0  0  0
   23.6600   44.1035    0.3620 H   0  0  0  0  0  0  0  0  0  0  0  0
   22.4600   46.1552   -0.2909 H   0  0  0  0  0  0  0  0  0  0  0  0
   23.2487   46.3845    1.2531 H   0  0  0  0  0  0  0  0  0  0  0  0
   21.4823   46.0785    1.1599 H   0  0  0  0  0  0  0  0  0  0  0  0
   20.2144   43.3502    1.5598 H   0  0  0  0  0  0  0  0  0  0  0  0
   18.6094   42.1520    0.1583 H   0  0  0  0  0  0  0  0  0  0  0  0
   19.1133   41.6348   -2.1879 H   0  0  0  0  0  0  0  0  0  0  0  0
   22.8601   43.7268   -1.7888 H   0  0  0  0  0  0  0  0  0  0  0  0
   23.4783   41.9662   -3.4438 H   0  0  0  0  0  0  0  0  0  0  0  0
   23.1109   43.6122   -3.9666 H   0  0  0  0  0  0  0  0  0  0  0  0
   23.0102   42.2833   -5.0959 H   0  0  0  0  0  0  0  0  0  0  0  0
   21.5243   40.1654   -3.4225 H   0  0  0  0  0  0  0  0  0  0  0  0
   21.2497   40.6495   -5.0842 H   0  0  0  0  0  0  0  0  0  0  0  0
   19.9216   40.6561   -3.9512 H   0  0  0  0  0  0  0  0  0  0  0  0
   20.8591   44.2436   -4.2070 H   0  0  0  0  0  0  0  0  0  0  0  0
   21.3105   42.9902   -6.3216 H   0  0  0  0  0  0  0  0  0  0  0  0
   19.7661   42.2358   -6.0104 H   0  0  0  0  0  0  0  0  0  0  0  0
   21.0508   44.9556   -7.5955 H   0  0  0  0  0  0  0  0  0  0  0  0
   17.3481   42.9500   -6.4396 H   0  0  0  0  0  0  0  0  0  0  0  0
   16.7945   44.5496   -6.8433 H   0  0  0  0  0  0  0  0  0  0  0  0
   16.2259   44.8094   -9.4887 H   0  0  0  0  0  0  0  0  0  0  0  0
   13.4928   40.5326  -10.9314 H   0  0  0  0  0  0  0  0  0  0  0  0
   14.7488   39.3647   -7.9041 H   0  0  0  0  0  0  0  0  0  0  0  0
   13.8044   39.4326   -9.3555 H   0  0  0  0  0  0  0  0  0  0  0  0
   15.3892   37.5732   -9.5219 H   0  0  0  0  0  0  0  0  0  0  0  0
   15.8072   38.7818  -10.7148 H   0  0  0  0  0  0  0  0  0  0  0  0
   17.5635   39.6655   -9.1827 H   0  0  0  0  0  0  0  0  0  0  0  0
   17.1870   38.4403   -7.9995 H   0  0  0  0  0  0  0  0  0  0  0  0
   17.9495   36.6566   -9.5211 H   0  0  0  0  0  0  0  0  0  0  0  0
   18.1301   37.7861  -10.8396 H   0  0  0  0  0  0  0  0  0  0  0  0
   19.8055   40.2783   -8.1316 H   0  0  0  0  0  0  0  0  0  0  0  0
   21.2454   42.2440  -11.7134 H   0  0  0  0  0  0  0  0  0  0  0  0
   22.0062   40.7181  -13.5274 H   0  0  0  0  0  0  0  0  0  0  0  0
   20.3794   40.1496  -13.8674 H   0  0  0  0  0  0  0  0  0  0  0  0
   21.6600   38.9840  -13.4778 H   0  0  0  0  0  0  0  0  0  0  0  0
   18.6566   42.0348   -8.4311 H   0  0  0  0  0  0  0  0  0  0  0  0
   16.3299   41.0996   -7.3045 H   0  0  0  0  0  0  0  0  0  0  0  0
  1  2  1  0  0  0  0
  1 44  1  0  0  0  0
  1 45  1  0  0  0  0
  1 46  1  0  0  0  0
  2  3  1  0  0  0  0
  2  4  1  0  0  0  0
  2 47  1  0  0  0  0
  3 48  1  0  0  0  0
  3 49  1  0  0  0  0
  3 50  1  0  0  0  0
  4  9  1  0  0  0  0
  4  5  2  0  0  0  0
  5  6  1  0  0  0  0
  5 51  1  0  0  0  0
  6  7  2  0  0  0  0
  6 52  1  0  0  0  0
  7  8  1  0  0  0  0
  7 53  1  0  0  0  0
  8  9  2  0  0  0  0
  8 10  1  0  0  0  0
  9 54  1  0  0  0  0
 10 11  1  0  0  0  0
 10 12  1  0  0  0  0
 10 13  1  0  0  0  0
 11 55  1  0  0  0  0
 11 56  1  0  0  0  0
 11 57  1  0  0  0  0
 12 58  1  0  0  0  0
 12 59  1  0  0  0  0
 12 60  1  0  0  0  0
 13 14  1  0  0  0  0
 13 61  1  0  0  0  0
 14 15  1  0  0  0  0
 14 62  1  0  0  0  0
 14 63  1  0  0  0  0
 15 42  1  1  0  0  0
 15 16  1  0  0  0  0
 15 17  1  0  0  0  0
 16 64  1  0  0  0  0
 17 43  1  6  0  0  0
 17 40  1  0  0  0  0
 17 18  1  0  0  0  0
 18 19  1  0  0  0  0
 18 65  1  0  0  0  0
 18 66  1  0  0  0  0
 19 41  1  0  0  0  0
 19 20  2  0  0  0  0
 20 21  1  0  0  0  0
 20 67  1  0  0  0  0
 21 22  1  0  0  0  0
 21 23  2  0  0  0  0
 23 24  1  0  0  0  0
 23 25  1  0  0  0  0
 24 68  1  0  0  0  0
 25 26  1  0  0  0  0
 25 41  2  0  0  0  0
 26 27  1  0  0  0  0
 26 69  1  0  0  0  0
 26 70  1  0  0  0  0
 27 28  1  0  0  0  0
 27 71  1  0  0  0  0
 27 72  1  0  0  0  0
 28 29  1  0  0  0  0
 28 73  1  0  0  0  0
 28 74  1  0  0  0  0
 29 30  1  0  0  0  0
 29 75  1  0  0  0  0
 29 76  1  0  0  0  0
 30 31  1  0  0  0  0
 31 37  1  0  0  0  0
 31 32  2  0  0  0  0
 32 33  1  0  0  0  0
 32 77  1  0  0  0  0
 33 34  2  0  0  0  0
 33 38  1  0  0  0  0
 34 35  1  0  0  0  0
 34 78  1  0  0  0  0
 35 36  1  0  0  0  0
 35 37  2  0  0  0  0
 36 79  1  0  0  0  0
 36 80  1  0  0  0  0
 36 81  1  0  0  0  0
 38 39  2  0  0  0  0
 38 40  1  0  0  0  0
 40 82  1  0  0  0  0
 41 83  1  0  0  0  0
M  END
>  <s_m_source_file>
BACE_107.smi

>  <i_m_source_file_index>
1

>  <i_lp_mmshare_version>
42013

>  <i_f3d_flags>
0

>  <s_epik_input>
W0NIM11bQ0hdKFtDSDNdKWMxW2NIXVtjSF1bY0hdYyhbY0hdMSlDKFtDSDNdKShbQ0gzXSlbTkhdW0NIMl1bQ0BASF0oW09IXSlbQ0BIXShbQ0gyXTIpW05IXUMoPU8pYyhbY0hdYyhuMylbQ0gzXSlbY0hdYzNPW0NIMl1bQ0gyXVtDSDJdW0NIMl1jKFtjSF00KWMoW09IXSljKENsKVtjSF1jMjQ=

>  <s_epik_cmdline>
J2VwaWtfcHl0aG9uJywgJy1waCcsICc3LjAnLCAnLXRuJywgJzgnLCAnLW1hJywgJzIwMCcsICctaW1hZScsICc8aW5maWxlLm1hZT4nLCAnLW9tYWUnLCAnPG91dGZpbGUubWFlPic=

>  <r_lp_tautomer_probability>
1

>  <r_epik_Ionization_Penalty>
2.0113

>  <r_epik_Ionization_Penalty_Charging>
0.0000

>  <r_epik_Ionization_Penalty_Neutral>
2.0113

>  <r_epik_State_Penalty>
2.1387

>  <r_epik_Charging_Adjusted_Penalty>
2.13865

>  <i_epik_Tot_Q>
0

>  <i_epik_Tot_abs_Q>
0

>  <s_lp_Force_Field>
OPLS_2005

>  <r_lp_Energy>
33.351

>  <b_lp_Chiralities_Consistent>
1

>  <s_lp_Variant>
BACE_107.smi:1-2

>  <chiral flag>
1

>  <version>
0

>  <s_i_glide_gridfile>
second_dock_grid_2

>  <i_i_glide_lignum>
219

>  <i_i_glide_rotatable_bonds>
8

>  <r_i_docking_score>
-3.4197

>  <r_i_glide_ligand_efficiency>
-0.0834073

>  <r_i_glide_ligand_efficiency_sa>
-0.287606

>  <r_i_glide_ligand_efficiency_ln>
-0.7255

>  <r_glide_XP_GScore>
-5.5584

>  <r_i_glide_gscore>
-5.5584

>  <r_i_glide_evdw>
-49.0873

>  <r_i_glide_ecoul>
-10.1981

>  <r_i_glide_energy>
-59.2854

>  <r_i_glide_einternal>
3.71227

>  <r_i_glide_emodel>
-64.9429

>  <r_glide_XP_HBond>
-1.03353

>  <i_i_glide_confnum>
1

>  <i_i_glide_posenum>
1

>  <r_i_glide_eff_state_penalty>
2.1387

>  <i_glide_XP_PoseRank>
1

$$$$
