BACE_52.smi:1
 OpenBabel09291822493D
Structure written by MMmdl.
 81 84  0  0  1  0  0  0  0  0999 V2000
   29.7565   44.9051   -9.5638 C   0  0  0  0  0  0  0  0  0  0  0  0
   28.4894   45.2269  -10.3724 C   0  0  0  0  0  0  0  0  0  0  0  0
   28.8263   45.8207  -11.7505 C   0  0  0  0  0  0  0  0  0  0  0  0
   27.5825   44.0121  -10.4982 C   0  0  0  0  0  0  0  0  0  0  0  0
   26.2832   44.0256   -9.9531 C   0  0  0  0  0  0  0  0  0  0  0  0
   25.4807   42.8713  -10.0747 C   0  0  0  0  0  0  0  0  0  0  0  0
   25.9017   41.7541  -10.7064 N   0  0  0  0  0  0  0  0  0  0  0  0
   27.1389   41.7500  -11.2396 C   0  0  0  0  0  0  0  0  0  0  0  0
   28.0178   42.8448  -11.1578 C   0  0  0  0  0  0  0  0  0  0  0  0
   24.1031   42.7924   -9.4809 C   0  0  0  0  0  0  0  0  0  0  0  0
   23.8958   41.8198   -8.3368 C   0  0  0  0  0  0  0  0  0  0  0  0
   23.8850   43.3012   -8.0619 C   0  0  0  0  0  0  0  0  0  0  0  0
   23.0674   42.9334  -10.5293 N   0  0  0  0  0  0  0  0  0  0  0  0
   21.8265   43.6748  -10.2362 C   0  0  0  0  0  0  0  0  0  0  0  0
   20.7499   42.8811   -9.4479 C   0  0  1  0  0  0  0  0  0  0  0  0
   19.8192   43.8066   -8.9289 O   0  0  0  0  0  0  0  0  0  0  0  0
   19.9857   41.7556  -10.2129 C   0  0  2  0  0  0  0  0  0  0  0  0
   20.8415   40.4658  -10.3276 C   0  0  0  0  0  0  0  0  0  0  0  0
   20.2684   39.2413   -9.5931 C   0  0  2  0  0  0  0  0  0  0  0  0
   21.4066   38.2756   -9.2399 C   0  0  0  0  0  0  0  0  0  0  0  0
   19.1726   38.5577  -10.4464 C   0  0  0  0  0  0  0  0  0  0  0  0
   18.2885   37.5084   -9.7304 C   0  0  0  0  0  0  0  0  0  0  0  0
   17.6331   37.9628   -8.4139 C   0  0  0  0  0  0  0  0  0  0  0  0
   16.8234   39.2567   -8.5645 C   0  0  0  0  0  0  0  0  0  0  0  0
   16.2880   39.8106   -7.2372 C   0  0  0  0  0  0  0  0  0  0  0  0
   16.1150   41.3370   -7.2834 C   0  0  0  0  0  0  0  0  0  0  0  0
   15.0092   41.8071   -8.2353 C   0  0  0  0  0  0  0  0  0  0  0  0
   15.0645   43.2117   -8.4404 O   0  0  0  0  0  0  0  0  0  0  0  0
   15.9525   43.7166   -9.3643 C   0  0  0  0  0  0  0  0  0  0  0  0
   16.8302   42.9401  -10.1650 C   0  0  0  0  0  0  0  0  0  0  0  0
   17.6643   43.5989  -11.0922 C   0  0  0  0  0  0  0  0  0  0  0  0
   17.5688   44.9997  -11.1970 C   0  0  0  0  0  0  0  0  0  0  0  0
   16.6781   45.6865  -10.3550 C   0  0  0  0  0  0  0  0  0  0  0  0
   16.5644   47.4004  -10.4851 Cl  0  0  0  0  0  0  0  0  0  0  0  0
   15.8865   45.0609   -9.4626 N   0  0  0  0  0  0  0  0  0  0  0  0
   18.5621   42.8506  -12.0332 C   0  0  0  0  0  0  0  0  0  0  0  0
   18.3723   42.9562  -13.2403 O   0  0  0  0  0  0  0  0  0  0  0  0
   19.5938   42.1250  -11.5722 N   0  0  0  0  0  0  0  0  0  0  0  0
   21.1815   42.4460   -8.5522 H   0  0  0  0  0  0  0  0  0  0  0  0
   19.0896   41.5086   -9.6464 H   0  0  0  0  0  0  0  0  0  0  0  0
   19.8406   39.5849   -8.6514 H   0  0  0  0  0  0  0  0  0  0  0  0
   29.5040   44.5153   -8.5761 H   0  0  0  0  0  0  0  0  0  0  0  0
   30.3638   45.7989   -9.4193 H   0  0  0  0  0  0  0  0  0  0  0  0
   30.3774   44.1623  -10.0650 H   0  0  0  0  0  0  0  0  0  0  0  0
   27.9409   45.9897   -9.8174 H   0  0  0  0  0  0  0  0  0  0  0  0
   27.9175   46.0880  -12.2925 H   0  0  0  0  0  0  0  0  0  0  0  0
   29.3837   45.1159  -12.3677 H   0  0  0  0  0  0  0  0  0  0  0  0
   29.4325   46.7226  -11.6503 H   0  0  0  0  0  0  0  0  0  0  0  0
   25.9068   44.8972   -9.4381 H   0  0  0  0  0  0  0  0  0  0  0  0
   27.4380   40.8514  -11.7552 H   0  0  0  0  0  0  0  0  0  0  0  0
   29.0007   42.7828  -11.6000 H   0  0  0  0  0  0  0  0  0  0  0  0
   22.9578   41.2937   -8.2079 H   0  0  0  0  0  0  0  0  0  0  0  0
   24.7703   41.2497   -8.0405 H   0  0  0  0  0  0  0  0  0  0  0  0
   24.7434   43.7038   -7.5262 H   0  0  0  0  0  0  0  0  0  0  0  0
   22.9302   43.7301   -7.7712 H   0  0  0  0  0  0  0  0  0  0  0  0
   22.8323   42.0055  -10.8687 H   0  0  0  0  0  0  0  0  0  0  0  0
   22.0768   44.5928   -9.7023 H   0  0  0  0  0  0  0  0  0  0  0  0
   21.3905   44.0165  -11.1755 H   0  0  0  0  0  0  0  0  0  0  0  0
   19.2338   43.3537   -8.3398 H   0  0  0  0  0  0  0  0  0  0  0  0
   21.0269   40.1959  -11.3687 H   0  0  0  0  0  0  0  0  0  0  0  0
   21.8368   40.6546   -9.9396 H   0  0  0  0  0  0  0  0  0  0  0  0
   22.0151   38.0333  -10.1098 H   0  0  0  0  0  0  0  0  0  0  0  0
   21.0134   37.3500   -8.8400 H   0  0  0  0  0  0  0  0  0  0  0  0
   22.0737   38.7032   -8.4899 H   0  0  0  0  0  0  0  0  0  0  0  0
   19.6438   38.0847  -11.3081 H   0  0  0  0  0  0  0  0  0  0  0  0
   18.5190   39.3201  -10.8731 H   0  0  0  0  0  0  0  0  0  0  0  0
   18.8602   36.6033   -9.5382 H   0  0  0  0  0  0  0  0  0  0  0  0
   17.5005   37.2101  -10.4225 H   0  0  0  0  0  0  0  0  0  0  0  0
   18.4023   38.0885   -7.6512 H   0  0  0  0  0  0  0  0  0  0  0  0
   16.9813   37.1721   -8.0401 H   0  0  0  0  0  0  0  0  0  0  0  0
   17.4681   40.0129   -9.0026 H   0  0  0  0  0  0  0  0  0  0  0  0
   16.0038   39.1070   -9.2677 H   0  0  0  0  0  0  0  0  0  0  0  0
   16.9922   39.5771   -6.4390 H   0  0  0  0  0  0  0  0  0  0  0  0
   15.3528   39.3167   -6.9650 H   0  0  0  0  0  0  0  0  0  0  0  0
   15.8742   41.7027   -6.2873 H   0  0  0  0  0  0  0  0  0  0  0  0
   17.0680   41.7969   -7.5415 H   0  0  0  0  0  0  0  0  0  0  0  0
   14.9901   41.2624   -9.1789 H   0  0  0  0  0  0  0  0  0  0  0  0
   14.0600   41.5977   -7.7580 H   0  0  0  0  0  0  0  0  0  0  0  0
   16.8587   41.8642  -10.1009 H   0  0  0  0  0  0  0  0  0  0  0  0
   18.1731   45.5415  -11.9098 H   0  0  0  0  0  0  0  0  0  0  0  0
   20.1610   41.7064  -12.2942 H   0  0  0  0  0  0  0  0  0  0  0  0
  1  2  1  0  0  0  0
  1 42  1  0  0  0  0
  1 43  1  0  0  0  0
  1 44  1  0  0  0  0
  2  3  1  0  0  0  0
  2  4  1  0  0  0  0
  2 45  1  0  0  0  0
  3 46  1  0  0  0  0
  3 47  1  0  0  0  0
  3 48  1  0  0  0  0
  4  9  1  0  0  0  0
  4  5  2  0  0  0  0
  5  6  1  0  0  0  0
  5 49  1  0  0  0  0
  6  7  2  0  0  0  0
  6 10  1  0  0  0  0
  7  8  1  0  0  0  0
  8  9  2  0  0  0  0
  8 50  1  0  0  0  0
  9 51  1  0  0  0  0
 10 12  1  0  0  0  0
 10 11  1  0  0  0  0
 10 13  1  0  0  0  0
 11 12  1  0  0  0  0
 11 52  1  0  0  0  0
 11 53  1  0  0  0  0
 12 54  1  0  0  0  0
 12 55  1  0  0  0  0
 13 14  1  0  0  0  0
 13 56  1  0  0  0  0
 14 15  1  0  0  0  0
 14 57  1  0  0  0  0
 14 58  1  0  0  0  0
 15 39  1  1  0  0  0
 15 16  1  0  0  0  0
 15 17  1  0  0  0  0
 16 59  1  0  0  0  0
 17 40  1  1  0  0  0
 17 38  1  0  0  0  0
 17 18  1  0  0  0  0
 18 19  1  0  0  0  0
 18 60  1  0  0  0  0
 18 61  1  0  0  0  0
 19 41  1  1  0  0  0
 19 20  1  0  0  0  0
 19 21  1  0  0  0  0
 20 62  1  0  0  0  0
 20 63  1  0  0  0  0
 20 64  1  0  0  0  0
 21 22  1  0  0  0  0
 21 65  1  0  0  0  0
 21 66  1  0  0  0  0
 22 23  1  0  0  0  0
 22 67  1  0  0  0  0
 22 68  1  0  0  0  0
 23 24  1  0  0  0  0
 23 69  1  0  0  0  0
 23 70  1  0  0  0  0
 24 25  1  0  0  0  0
 24 71  1  0  0  0  0
 24 72  1  0  0  0  0
 25 26  1  0  0  0  0
 25 73  1  0  0  0  0
 25 74  1  0  0  0  0
 26 27  1  0  0  0  0
 26 75  1  0  0  0  0
 26 76  1  0  0  0  0
 27 28  1  0  0  0  0
 27 77  1  0  0  0  0
 27 78  1  0  0  0  0
 28 29  1  0  0  0  0
 29 35  1  0  0  0  0
 29 30  2  0  0  0  0
 30 31  1  0  0  0  0
 30 79  1  0  0  0  0
 31 32  2  0  0  0  0
 31 36  1  0  0  0  0
 32 33  1  0  0  0  0
 32 80  1  0  0  0  0
 33 34  1  0  0  0  0
 33 35  2  0  0  0  0
 36 37  2  0  0  0  0
 36 38  1  0  0  0  0
 38 81  1  0  0  0  0
M  END
>  <s_m_source_file>
BACE_52.smi

>  <i_m_source_file_index>
1

>  <i_lp_mmshare_version>
42013

>  <i_f3d_flags>
0

>  <s_epik_input>
W0NIM11bQ0hdKFtDSDNdKWMxW2NIXWMobltjSF1bY0hdMSlDMihbQ0gyXVtDSDJdMilbTkhdW0NIMl1bQ0BASF0oW09IXSlbQ0BASF0oW05IXUMoPU8pYyhbY0hdYzM0KVtjSF1jKENsKW40KVtDSDJdW0NASF0oW0NIM10pW0NIMl1bQ0gyXVtDSDJdW0NIMl1bQ0gyXVtDSDJdW0NIMl1PMw==

>  <s_epik_cmdline>
J2VwaWtfcHl0aG9uJywgJy1waCcsICc3LjAnLCAnLXRuJywgJzgnLCAnLW1hJywgJzIwMCcsICctaW1hZScsICc8aW5maWxlLm1hZT4nLCAnLW9tYWUnLCAnPG91dGZpbGUubWFlPic=

>  <r_lp_tautomer_probability>
1

>  <r_epik_Ionization_Penalty>
0.2078

>  <r_epik_Ionization_Penalty_Charging>
0.0000

>  <r_epik_Ionization_Penalty_Neutral>
0.2078

>  <r_epik_State_Penalty>
0.0822

>  <r_epik_Charging_Adjusted_Penalty>
0.0821665

>  <i_epik_Tot_Q>
0

>  <i_epik_Tot_abs_Q>
0

>  <s_lp_Force_Field>
OPLS_2005

>  <r_lp_Energy>
35.6332

>  <b_lp_Chiralities_Consistent>
1

>  <s_lp_Variant>
BACE_52.smi:1-1

>  <chiral flag>
1

>  <version>
0

>  <s_i_glide_gridfile>
second_dock_grid_2

>  <i_i_glide_lignum>
99

>  <i_i_glide_rotatable_bonds>
7

>  <r_i_docking_score>
-2.46173

>  <r_i_glide_ligand_efficiency>
-0.0647823

>  <r_i_glide_ligand_efficiency_sa>
-0.217797

>  <r_i_glide_ligand_efficiency_ln>
-0.530821

>  <r_glide_XP_GScore>
-2.54393

>  <r_i_glide_gscore>
-2.54393

>  <r_i_glide_evdw>
-35.2991

>  <r_i_glide_ecoul>
-4.81333

>  <r_i_glide_energy>
-40.1124

>  <r_i_glide_einternal>
4.33602

>  <r_i_glide_emodel>
-54.7642

>  <r_glide_XP_HBond>
-0.7

>  <i_i_glide_confnum>
1

>  <i_i_glide_posenum>
6

>  <r_i_glide_eff_state_penalty>
0.0822

>  <i_glide_XP_PoseRank>
1

$$$$
