BACE_36.smi:1
 OpenBabel09291822493D
Structure written by MMmdl.
 91 93  0  0  1  0  0  0  0  0999 V2000
   29.3816   41.2888  -12.9899 C   0  0  0  0  0  0  0  0  0  0  0  0
   29.4865   41.6451  -11.5003 C   0  0  0  0  0  0  0  0  0  0  0  0
   30.2459   42.9705  -11.3001 C   0  0  0  0  0  0  0  0  0  0  0  0
   28.1486   41.7524  -11.0118 O   0  0  0  0  0  0  0  0  0  0  0  0
   27.2868   42.7300  -11.4802 C   0  0  0  0  0  0  0  0  0  0  0  0
   27.6454   43.7256  -12.4246 C   0  0  0  0  0  0  0  0  0  0  0  0
   26.7101   44.6866  -12.8522 C   0  0  0  0  0  0  0  0  0  0  0  0
   25.3906   44.6888  -12.3559 C   0  0  0  0  0  0  0  0  0  0  0  0
   25.0317   43.6988  -11.4140 C   0  0  0  0  0  0  0  0  0  0  0  0
   25.9620   42.7307  -10.9751 C   0  0  0  0  0  0  0  0  0  0  0  0
   25.5116   41.6930   -9.9552 C   0  0  0  0  0  0  0  0  0  0  0  0
   24.3285   40.9527  -10.4404 N   0  3  0  0  0  0  0  0  0  0  0  0
   23.0526   41.3642   -9.8166 C   0  0  0  0  0  0  0  0  0  0  0  0
   21.9021   40.4075  -10.1981 C   0  0  1  0  0  0  0  0  0  0  0  0
   22.0619   39.2093   -9.4596 O   0  0  0  0  0  0  0  0  0  0  0  0
   20.4876   41.0136   -9.9523 C   0  0  2  0  0  0  0  0  0  0  0  0
   19.3093   40.0155  -10.1519 C   0  0  0  0  0  0  0  0  0  0  0  0
   17.9206   40.5823   -9.7883 C   0  0  2  0  0  0  0  0  0  0  0  0
   17.9701   41.1891   -8.3890 C   0  0  0  0  0  0  0  0  0  0  0  0
   16.7897   39.5371   -9.8473 C   0  0  0  0  0  0  0  0  0  0  0  0
   15.3990   40.1430   -9.5697 C   0  0  0  0  0  0  0  0  0  0  0  0
   14.8191   40.9268  -10.7667 C   0  0  0  0  0  0  0  0  0  0  0  0
   13.5682   41.7681  -10.4344 C   0  0  0  0  0  0  0  0  0  0  0  0
   13.7926   42.9400   -9.4478 C   0  0  0  0  0  0  0  0  0  0  0  0
   14.9501   43.9015   -9.7972 C   0  0  0  0  0  0  0  0  0  0  0  0
   14.7810   44.6390  -11.1440 O   0  0  0  0  0  0  0  0  0  0  0  0
   15.9850   45.5376  -11.5254 C   0  0  0  0  0  0  0  0  0  0  0  0
   17.2683   44.7705  -11.8714 C   0  0  0  0  0  0  0  0  0  0  0  0
   17.2210   43.8276  -12.6442 O   0  0  0  0  0  0  0  0  0  0  0  0
   18.3998   45.2014  -11.2931 N   0  0  0  0  0  0  0  0  0  0  0  0
   18.3080   46.3314  -10.3908 C   0  0  0  0  0  0  0  0  0  0  0  0
   19.6856   44.4840  -11.4416 C   0  0  1  0  0  0  0  0  0  0  0  0
   20.8283   45.4798  -11.2649 C   0  0  0  0  0  0  0  0  0  0  0  0
   19.8481   43.3956  -10.3567 C   0  0  0  0  0  0  0  0  0  0  0  0
   19.5889   43.6253   -9.1869 O   0  0  0  0  0  0  0  0  0  0  0  0
   20.2841   42.2024  -10.7893 N   0  0  0  0  0  0  0  0  0  0  0  0
   24.4086   45.7439  -12.8448 C   0  0  0  0  0  0  0  0  0  0  0  0
   24.5874   46.2682  -14.2496 C   0  0  0  0  0  0  0  0  0  0  0  0
   24.9366   47.1409  -13.0677 C   0  0  0  0  0  0  0  0  0  0  0  0
   22.0084   40.1640  -11.2562 H   0  0  0  0  0  0  0  0  0  0  0  0
   20.4634   41.3455   -8.9142 H   0  0  0  0  0  0  0  0  0  0  0  0
   17.6896   41.4075  -10.4619 H   0  0  0  0  0  0  0  0  0  0  0  0
   19.8075   44.0657  -12.4408 H   0  0  0  0  0  0  0  0  0  0  0  0
   30.3683   41.1754  -13.4400 H   0  0  0  0  0  0  0  0  0  0  0  0
   28.8462   42.0581  -13.5475 H   0  0  0  0  0  0  0  0  0  0  0  0
   28.8477   40.3482  -13.1286 H   0  0  0  0  0  0  0  0  0  0  0  0
   30.0202   40.8234  -11.0232 H   0  0  0  0  0  0  0  0  0  0  0  0
   31.2560   42.9074  -11.7060 H   0  0  0  0  0  0  0  0  0  0  0  0
   30.3379   43.2362  -10.2476 H   0  0  0  0  0  0  0  0  0  0  0  0
   29.7390   43.7954  -11.8021 H   0  0  0  0  0  0  0  0  0  0  0  0
   28.6349   43.7821  -12.8499 H   0  0  0  0  0  0  0  0  0  0  0  0
   27.0194   45.4287  -13.5739 H   0  0  0  0  0  0  0  0  0  0  0  0
   24.0283   43.6733  -11.0156 H   0  0  0  0  0  0  0  0  0  0  0  0
   26.3230   40.9995   -9.7311 H   0  0  0  0  0  0  0  0  0  0  0  0
   25.2665   42.1891   -9.0149 H   0  0  0  0  0  0  0  0  0  0  0  0
   24.2543   41.0878  -11.4386 H   0  0  0  0  0  0  0  0  0  0  0  0
   23.1762   41.4165   -8.7342 H   0  0  0  0  0  0  0  0  0  0  0  0
   22.8235   42.3735  -10.1612 H   0  0  0  0  0  0  0  0  0  0  0  0
   22.9339   38.8780   -9.6108 H   0  0  0  0  0  0  0  0  0  0  0  0
   19.3030   39.6626  -11.1832 H   0  0  0  0  0  0  0  0  0  0  0  0
   19.5058   39.1330   -9.5431 H   0  0  0  0  0  0  0  0  0  0  0  0
   17.0047   41.6007   -8.0955 H   0  0  0  0  0  0  0  0  0  0  0  0
   18.6883   42.0059   -8.3262 H   0  0  0  0  0  0  0  0  0  0  0  0
   18.2498   40.4471   -7.6401 H   0  0  0  0  0  0  0  0  0  0  0  0
   16.7873   39.0324  -10.8135 H   0  0  0  0  0  0  0  0  0  0  0  0
   16.9923   38.7623   -9.1079 H   0  0  0  0  0  0  0  0  0  0  0  0
   15.4622   40.7783   -8.6863 H   0  0  0  0  0  0  0  0  0  0  0  0
   14.7034   39.3460   -9.3069 H   0  0  0  0  0  0  0  0  0  0  0  0
   15.5760   41.5759  -11.2071 H   0  0  0  0  0  0  0  0  0  0  0  0
   14.5679   40.2180  -11.5558 H   0  0  0  0  0  0  0  0  0  0  0  0
   12.7891   41.1152  -10.0411 H   0  0  0  0  0  0  0  0  0  0  0  0
   13.1612   42.1644  -11.3647 H   0  0  0  0  0  0  0  0  0  0  0  0
   12.8675   43.5102   -9.3625 H   0  0  0  0  0  0  0  0  0  0  0  0
   13.9673   42.5364   -8.4505 H   0  0  0  0  0  0  0  0  0  0  0  0
   15.8905   43.3506   -9.7831 H   0  0  0  0  0  0  0  0  0  0  0  0
   15.0425   44.6404   -9.0012 H   0  0  0  0  0  0  0  0  0  0  0  0
   16.1705   46.2571  -10.7278 H   0  0  0  0  0  0  0  0  0  0  0  0
   15.7320   46.1328  -12.4028 H   0  0  0  0  0  0  0  0  0  0  0  0
   19.2768   46.7262  -10.0908 H   0  0  0  0  0  0  0  0  0  0  0  0
   17.7719   46.0648   -9.4792 H   0  0  0  0  0  0  0  0  0  0  0  0
   17.8003   47.1727  -10.8644 H   0  0  0  0  0  0  0  0  0  0  0  0
   21.7976   44.9972  -11.3972 H   0  0  0  0  0  0  0  0  0  0  0  0
   20.8228   45.9395  -10.2761 H   0  0  0  0  0  0  0  0  0  0  0  0
   20.7684   46.2834  -11.9998 H   0  0  0  0  0  0  0  0  0  0  0  0
   20.4692   42.1149  -11.7783 H   0  0  0  0  0  0  0  0  0  0  0  0
   23.3902   45.6431  -12.4695 H   0  0  0  0  0  0  0  0  0  0  0  0
   23.6887   46.5179  -14.8134 H   0  0  0  0  0  0  0  0  0  0  0  0
   25.4103   45.8632  -14.8386 H   0  0  0  0  0  0  0  0  0  0  0  0
   25.9929   47.3193  -12.8666 H   0  0  0  0  0  0  0  0  0  0  0  0
   24.2713   47.9741  -12.8415 H   0  0  0  0  0  0  0  0  0  0  0  0
   24.4704   39.9695  -10.2578 H   0  0  0  0  0  0  0  0  0  0  0  0
  1  2  1  0  0  0  0
  1 44  1  0  0  0  0
  1 45  1  0  0  0  0
  1 46  1  0  0  0  0
  2  3  1  0  0  0  0
  2  4  1  0  0  0  0
  2 47  1  0  0  0  0
  3 48  1  0  0  0  0
  3 49  1  0  0  0  0
  3 50  1  0  0  0  0
  4  5  1  0  0  0  0
  5 10  1  0  0  0  0
  5  6  2  0  0  0  0
  6  7  1  0  0  0  0
  6 51  1  0  0  0  0
  7  8  2  0  0  0  0
  7 52  1  0  0  0  0
  8  9  1  0  0  0  0
  8 37  1  0  0  0  0
  9 10  2  0  0  0  0
  9 53  1  0  0  0  0
 10 11  1  0  0  0  0
 11 12  1  0  0  0  0
 11 54  1  0  0  0  0
 11 55  1  0  0  0  0
 12 13  1  0  0  0  0
 12 56  1  0  0  0  0
 12 91  1  0  0  0  0
 13 14  1  0  0  0  0
 13 57  1  0  0  0  0
 13 58  1  0  0  0  0
 14 40  1  6  0  0  0
 14 15  1  0  0  0  0
 14 16  1  0  0  0  0
 15 59  1  0  0  0  0
 16 41  1  1  0  0  0
 16 36  1  0  0  0  0
 16 17  1  0  0  0  0
 17 18  1  0  0  0  0
 17 60  1  0  0  0  0
 17 61  1  0  0  0  0
 18 42  1  6  0  0  0
 18 19  1  0  0  0  0
 18 20  1  0  0  0  0
 19 62  1  0  0  0  0
 19 63  1  0  0  0  0
 19 64  1  0  0  0  0
 20 21  1  0  0  0  0
 20 65  1  0  0  0  0
 20 66  1  0  0  0  0
 21 22  1  0  0  0  0
 21 67  1  0  0  0  0
 21 68  1  0  0  0  0
 22 23  1  0  0  0  0
 22 69  1  0  0  0  0
 22 70  1  0  0  0  0
 23 24  1  0  0  0  0
 23 71  1  0  0  0  0
 23 72  1  0  0  0  0
 24 25  1  0  0  0  0
 24 73  1  0  0  0  0
 24 74  1  0  0  0  0
 25 26  1  0  0  0  0
 25 75  1  0  0  0  0
 25 76  1  0  0  0  0
 26 27  1  0  0  0  0
 27 28  1  0  0  0  0
 27 77  1  0  0  0  0
 27 78  1  0  0  0  0
 28 29  2  0  0  0  0
 28 30  1  0  0  0  0
 30 31  1  0  0  0  0
 30 32  1  0  0  0  0
 31 79  1  0  0  0  0
 31 80  1  0  0  0  0
 31 81  1  0  0  0  0
 32 43  1  6  0  0  0
 32 33  1  0  0  0  0
 32 34  1  0  0  0  0
 33 82  1  0  0  0  0
 33 83  1  0  0  0  0
 33 84  1  0  0  0  0
 34 35  2  0  0  0  0
 34 36  1  0  0  0  0
 36 85  1  0  0  0  0
 37 39  1  0  0  0  0
 37 38  1  0  0  0  0
 37 86  1  0  0  0  0
 38 39  1  0  0  0  0
 38 87  1  0  0  0  0
 38 88  1  0  0  0  0
 39 89  1  0  0  0  0
 39 90  1  0  0  0  0
M  CHG  1  12   1
M  END
>  <s_m_source_file>
BACE_36.smi

>  <i_m_source_file_index>
1

>  <i_lp_mmshare_version>
42013

>  <i_f3d_flags>
0

>  <s_epik_input>
W0NIM11bQ0hdKFtDSDNdKU9jMVtjSF1bY0hdYyhbQ0hdMltDSDJdW0NIMl0yKVtjSF1jMVtDSDJdW05IXVtDSDJdW0NAQEhdKFtPSF0pW0NAQEhdM1tDSDJdW0NASF0oW0NIM10pW0NIMl1bQ0gyXVtDSDJdW0NIMl1bQ0gyXVtDSDJdT1tDSDJdQyg9TylOKFtDSDNdKVtDQEBIXShbQ0gzXSlDKD1PKVtOSF0z

>  <s_epik_cmdline>
J2VwaWtfcHl0aG9uJywgJy1waCcsICc3LjAnLCAnLXRuJywgJzgnLCAnLW1hJywgJzIwMCcsICctaW1hZScsICc8aW5maWxlLm1hZT4nLCAnLW9tYWUnLCAnPG91dGZpbGUubWFlPic=

>  <r_lp_tautomer_probability>
1

>  <r_epik_Ionization_Penalty>
0.0151

>  <r_epik_Ionization_Penalty_Charging>
0.0151

>  <r_epik_Ionization_Penalty_Neutral>
0.0000

>  <r_epik_State_Penalty>
0.0118

>  <r_epik_Charging_Adjusted_Penalty>
0.0269422

>  <i_epik_Tot_Q>
1

>  <i_epik_Tot_abs_Q>
1

>  <s_lp_Force_Field>
OPLS_2005

>  <r_lp_Energy>
42.9753

>  <b_lp_Chiralities_Consistent>
1

>  <s_lp_Variant>
BACE_36.smi:1-1

>  <chiral flag>
1

>  <version>
0

>  <s_i_glide_gridfile>
second_dock_grid_2

>  <i_i_glide_lignum>
63

>  <i_i_glide_rotatable_bonds>
9

>  <r_i_docking_score>
-5.28822

>  <r_i_glide_ligand_efficiency>
-0.135595

>  <r_i_glide_ligand_efficiency_sa>
-0.459832

>  <r_i_glide_ligand_efficiency_ln>
-1.13394

>  <r_glide_XP_GScore>
-5.30002

>  <r_i_glide_gscore>
-5.30002

>  <r_i_glide_evdw>
-35.1375

>  <r_i_glide_ecoul>
-12.9374

>  <r_i_glide_energy>
-48.0749

>  <r_i_glide_einternal>
2.35715

>  <r_i_glide_emodel>
-68.638

>  <r_glide_XP_HBond>
-1.14559

>  <i_i_glide_confnum>
1

>  <i_i_glide_posenum>
19

>  <r_i_glide_eff_state_penalty>
0.0118

>  <i_glide_XP_PoseRank>
1

$$$$
