BACE_39.smi:1
 OpenBabel09291822493D
Structure written by MMmdl.
 88 89  0  0  1  0  0  0  0  0999 V2000
   19.3611   49.1696   -6.8451 C   0  0  0  0  0  0  0  0  0  0  0  0
   20.8621   49.0506   -7.1753 C   0  0  2  0  0  0  0  0  0  0  0  0
   21.1929   47.8254   -7.9360 N   0  0  0  0  0  0  0  0  0  0  0  0
   20.3484   46.6203   -7.8080 C   0  0  0  0  0  0  0  0  0  0  0  0
   20.6124   45.7995   -6.5166 C   0  0  1  0  0  0  0  0  0  0  0  0
   19.5321   46.0664   -5.6401 O   0  0  0  0  0  0  0  0  0  0  0  0
   20.6769   44.2401   -6.6344 C   0  0  2  0  0  0  0  0  0  0  0  0
   21.4696   43.6182   -5.4529 C   0  0  0  0  0  0  0  0  0  0  0  0
   21.0170   42.1997   -5.0114 C   0  0  2  0  0  0  0  0  0  0  0  0
   20.4612   42.2269   -3.5778 C   0  0  0  0  0  0  0  0  0  0  0  0
   22.1516   41.1540   -5.1238 C   0  0  0  0  0  0  0  0  0  0  0  0
   22.2501   40.5099   -6.5166 C   0  0  0  0  0  0  0  0  0  0  0  0
   21.2672   39.3362   -6.6883 C   0  0  0  0  0  0  0  0  0  0  0  0
   21.2436   38.7266   -8.0950 C   0  0  0  0  0  0  0  0  0  0  0  0
   20.5144   39.6216   -9.1005 C   0  0  0  0  0  0  0  0  0  0  0  0
   20.4425   39.0130  -10.5057 C   0  0  0  0  0  0  0  0  0  0  0  0
   19.7863   39.9403  -11.5414 C   0  0  0  0  0  0  0  0  0  0  0  0
   20.6200   41.1873  -11.8890 C   0  0  0  0  0  0  0  0  0  0  0  0
   19.9624   42.7307  -11.1049 S   0  0  0  0  0  0  0  0  0  0  0  0
   19.0184   43.3454  -12.0485 O   0  0  0  0  0  0  0  0  0  0  0  0
   19.5078   42.4296   -9.7444 O   0  0  0  0  0  0  0  0  0  0  0  0
   21.4744   43.7909  -11.0156 C   0  0  0  0  0  0  0  0  0  0  0  0
   22.4842   43.3029   -9.9417 C   0  0  1  0  0  0  0  0  0  0  0  0
   23.9297   43.4358  -10.4521 C   0  0  0  0  0  0  0  0  0  0  0  0
   22.2858   44.0017   -8.5778 C   0  0  0  0  0  0  0  0  0  0  0  0
   23.1315   44.7751   -8.1333 O   0  0  0  0  0  0  0  0  0  0  0  0
   21.1422   43.7246   -7.9281 N   0  0  0  0  0  0  0  0  0  0  0  0
   21.7436   49.3127   -5.9646 C   0  0  0  0  0  0  0  0  0  0  0  0
   22.7577   48.5125   -5.3660 C   0  0  0  0  0  0  0  0  0  0  0  0
   23.1843   49.2411   -4.2923 C   0  0  0  0  0  0  0  0  0  0  0  0
   24.1513   48.9193   -3.1828 C   0  0  0  0  0  0  0  0  0  0  0  0
   24.9498   50.0782   -2.5230 C   0  0  0  0  0  0  0  0  0  0  0  0
   26.0686   49.4607   -1.6599 C   0  0  0  0  0  0  0  0  0  0  0  0
   24.0431   50.9117   -1.5938 C   0  0  0  0  0  0  0  0  0  0  0  0
   25.5989   51.0051   -3.5653 C   0  0  0  0  0  0  0  0  0  0  0  0
   22.5193   50.4259   -4.2587 O   0  0  0  0  0  0  0  0  0  0  0  0
   21.6575   50.4936   -5.3585 N   0  0  0  0  0  0  0  0  0  0  0  0
   21.0621   49.8761   -7.8601 H   0  0  0  0  0  0  0  0  0  0  0  0
   21.5372   46.1363   -6.0561 H   0  0  0  0  0  0  0  0  0  0  0  0
   19.6511   43.8706   -6.5771 H   0  0  0  0  0  0  0  0  0  0  0  0
   20.1924   41.8731   -5.6453 H   0  0  0  0  0  0  0  0  0  0  0  0
   22.3328   42.2419   -9.7607 H   0  0  0  0  0  0  0  0  0  0  0  0
   19.1248   50.1502   -6.4486 H   0  0  0  0  0  0  0  0  0  0  0  0
   19.0480   48.4537   -6.0883 H   0  0  0  0  0  0  0  0  0  0  0  0
   18.7439   49.0245   -7.7315 H   0  0  0  0  0  0  0  0  0  0  0  0
   21.2937   48.0611   -8.9151 H   0  0  0  0  0  0  0  0  0  0  0  0
   19.2882   46.8445   -7.9267 H   0  0  0  0  0  0  0  0  0  0  0  0
   20.5576   46.0067   -8.6788 H   0  0  0  0  0  0  0  0  0  0  0  0
   18.7434   45.7544   -6.0571 H   0  0  0  0  0  0  0  0  0  0  0  0
   22.5355   43.6353   -5.6812 H   0  0  0  0  0  0  0  0  0  0  0  0
   21.3813   44.2783   -4.5900 H   0  0  0  0  0  0  0  0  0  0  0  0
   21.2346   42.4930   -2.8558 H   0  0  0  0  0  0  0  0  0  0  0  0
   20.0633   41.2540   -3.2914 H   0  0  0  0  0  0  0  0  0  0  0  0
   19.6528   42.9492   -3.4843 H   0  0  0  0  0  0  0  0  0  0  0  0
   23.1027   41.6150   -4.8569 H   0  0  0  0  0  0  0  0  0  0  0  0
   22.0121   40.3596   -4.3885 H   0  0  0  0  0  0  0  0  0  0  0  0
   22.0980   41.2672   -7.2820 H   0  0  0  0  0  0  0  0  0  0  0  0
   23.2602   40.1375   -6.6703 H   0  0  0  0  0  0  0  0  0  0  0  0
   21.5545   38.5504   -5.9978 H   0  0  0  0  0  0  0  0  0  0  0  0
   20.2569   39.6386   -6.4049 H   0  0  0  0  0  0  0  0  0  0  0  0
   22.2585   38.5209   -8.4356 H   0  0  0  0  0  0  0  0  0  0  0  0
   20.7286   37.7666   -8.0543 H   0  0  0  0  0  0  0  0  0  0  0  0
   19.5046   39.8331   -8.7453 H   0  0  0  0  0  0  0  0  0  0  0  0
   21.0353   40.5721   -9.1495 H   0  0  0  0  0  0  0  0  0  0  0  0
   21.4460   38.7466  -10.8381 H   0  0  0  0  0  0  0  0  0  0  0  0
   19.8808   38.0812  -10.4566 H   0  0  0  0  0  0  0  0  0  0  0  0
   19.6602   39.3503  -12.4463 H   0  0  0  0  0  0  0  0  0  0  0  0
   18.7793   40.2178  -11.2310 H   0  0  0  0  0  0  0  0  0  0  0  0
   21.6643   41.0477  -11.6108 H   0  0  0  0  0  0  0  0  0  0  0  0
   20.6141   41.3489  -12.9646 H   0  0  0  0  0  0  0  0  0  0  0  0
   21.9135   43.7994  -12.0181 H   0  0  0  0  0  0  0  0  0  0  0  0
   21.1544   44.8121  -10.8151 H   0  0  0  0  0  0  0  0  0  0  0  0
   24.6472   43.0918   -9.7067 H   0  0  0  0  0  0  0  0  0  0  0  0
   24.1742   44.4682  -10.6985 H   0  0  0  0  0  0  0  0  0  0  0  0
   24.0841   42.8331  -11.3463 H   0  0  0  0  0  0  0  0  0  0  0  0
   20.4997   43.0964   -8.4038 H   0  0  0  0  0  0  0  0  0  0  0  0
   23.1045   47.5332   -5.6566 H   0  0  0  0  0  0  0  0  0  0  0  0
   23.6388   48.3455   -2.4152 H   0  0  0  0  0  0  0  0  0  0  0  0
   24.8738   48.2191   -3.6056 H   0  0  0  0  0  0  0  0  0  0  0  0
   26.6545   50.2289   -1.1528 H   0  0  0  0  0  0  0  0  0  0  0  0
   26.7627   48.8708   -2.2617 H   0  0  0  0  0  0  0  0  0  0  0  0
   25.6651   48.8026   -0.8891 H   0  0  0  0  0  0  0  0  0  0  0  0
   23.5637   50.2879   -0.8390 H   0  0  0  0  0  0  0  0  0  0  0  0
   23.2543   51.4326   -2.1341 H   0  0  0  0  0  0  0  0  0  0  0  0
   24.6165   51.6752   -1.0644 H   0  0  0  0  0  0  0  0  0  0  0  0
   26.1881   51.7805   -3.0723 H   0  0  0  0  0  0  0  0  0  0  0  0
   24.8642   51.5035   -4.1927 H   0  0  0  0  0  0  0  0  0  0  0  0
   26.2655   50.4508   -4.2288 H   0  0  0  0  0  0  0  0  0  0  0  0
  1  2  1  0  0  0  0
  1 43  1  0  0  0  0
  1 44  1  0  0  0  0
  1 45  1  0  0  0  0
  2 38  1  6  0  0  0
  2  3  1  0  0  0  0
  2 28  1  0  0  0  0
  3  4  1  0  0  0  0
  3 46  1  0  0  0  0
  4  5  1  0  0  0  0
  4 47  1  0  0  0  0
  4 48  1  0  0  0  0
  5 39  1  1  0  0  0
  5  6  1  0  0  0  0
  5  7  1  0  0  0  0
  6 49  1  0  0  0  0
  7 40  1  1  0  0  0
  7 27  1  0  0  0  0
  7  8  1  0  0  0  0
  8  9  1  0  0  0  0
  8 50  1  0  0  0  0
  8 51  1  0  0  0  0
  9 41  1  6  0  0  0
  9 10  1  0  0  0  0
  9 11  1  0  0  0  0
 10 52  1  0  0  0  0
 10 53  1  0  0  0  0
 10 54  1  0  0  0  0
 11 12  1  0  0  0  0
 11 55  1  0  0  0  0
 11 56  1  0  0  0  0
 12 13  1  0  0  0  0
 12 57  1  0  0  0  0
 12 58  1  0  0  0  0
 13 14  1  0  0  0  0
 13 59  1  0  0  0  0
 13 60  1  0  0  0  0
 14 15  1  0  0  0  0
 14 61  1  0  0  0  0
 14 62  1  0  0  0  0
 15 16  1  0  0  0  0
 15 63  1  0  0  0  0
 15 64  1  0  0  0  0
 16 17  1  0  0  0  0
 16 65  1  0  0  0  0
 16 66  1  0  0  0  0
 17 18  1  0  0  0  0
 17 67  1  0  0  0  0
 17 68  1  0  0  0  0
 18 19  1  0  0  0  0
 18 69  1  0  0  0  0
 18 70  1  0  0  0  0
 19 20  2  0  0  0  0
 19 21  2  0  0  0  0
 19 22  1  0  0  0  0
 22 23  1  0  0  0  0
 22 71  1  0  0  0  0
 22 72  1  0  0  0  0
 23 42  1  1  0  0  0
 23 24  1  0  0  0  0
 23 25  1  0  0  0  0
 24 73  1  0  0  0  0
 24 74  1  0  0  0  0
 24 75  1  0  0  0  0
 25 26  2  0  0  0  0
 25 27  1  0  0  0  0
 27 76  1  0  0  0  0
 28 37  2  0  0  0  0
 28 29  1  0  0  0  0
 29 30  2  0  0  0  0
 29 77  1  0  0  0  0
 30 31  1  0  0  0  0
 30 36  1  0  0  0  0
 31 32  1  0  0  0  0
 31 78  1  0  0  0  0
 31 79  1  0  0  0  0
 32 33  1  0  0  0  0
 32 34  1  0  0  0  0
 32 35  1  0  0  0  0
 33 80  1  0  0  0  0
 33 81  1  0  0  0  0
 33 82  1  0  0  0  0
 34 83  1  0  0  0  0
 34 84  1  0  0  0  0
 34 85  1  0  0  0  0
 35 86  1  0  0  0  0
 35 87  1  0  0  0  0
 35 88  1  0  0  0  0
 36 37  1  0  0  0  0
M  END
>  <s_m_source_file>
BACE_39.smi

>  <i_m_source_file_index>
1

>  <i_lp_mmshare_version>
42013

>  <i_f3d_flags>
0

>  <s_epik_input>
W0NIM11DKFtDSDNdKShbQ0gzXSlbQ0gyXWMob24xKVtjSF1jMVtDQEhdKFtDSDNdKVtOSF1bQ0gyXVtDQEBIXShbT0hdKVtDQEBIXShbTkhdQyg9TylbQ0BASF0oW0NIMl0yKVtDSDNdKVtDSDJdW0NASF0oW0NIM10pW0NIMl1bQ0gyXVtDSDJdW0NIMl1bQ0gyXVtDSDJdW0NIMl1bQ0gyXVMyKD1PKT1P

>  <s_epik_cmdline>
J2VwaWtfcHl0aG9uJywgJy1waCcsICc3LjAnLCAnLXRuJywgJzgnLCAnLW1hJywgJzIwMCcsICctaW1hZScsICc8aW5maWxlLm1hZT4nLCAnLW9tYWUnLCAnPG91dGZpbGUubWFlPic=

>  <r_epik_Ionization_Penalty>
0.4331

>  <r_epik_Ionization_Penalty_Charging>
0.0000

>  <r_epik_Ionization_Penalty_Neutral>
0.4331

>  <r_epik_State_Penalty>
0.4347

>  <r_epik_Charging_Adjusted_Penalty>
0.434651

>  <i_epik_Tot_Q>
0

>  <i_epik_Tot_abs_Q>
0

>  <s_lp_Force_Field>
OPLS_2005

>  <r_lp_Energy>
25.2403

>  <b_lp_Chiralities_Consistent>
1

>  <s_lp_Variant>
BACE_39.smi:1-2

>  <chiral flag>
1

>  <version>
0

>  <s_i_glide_gridfile>
second_dock_grid_2

>  <i_i_glide_lignum>
70

>  <i_i_glide_rotatable_bonds>
8

>  <r_i_docking_score>
-3.51326

>  <r_i_glide_ligand_efficiency>
-0.094953

>  <r_i_glide_ligand_efficiency_sa>
-0.316404

>  <r_i_glide_ligand_efficiency_ln>
-0.761944

>  <r_glide_XP_GScore>
-3.94796

>  <r_i_glide_gscore>
-3.94796

>  <r_i_glide_evdw>
-36.167

>  <r_i_glide_ecoul>
-5.26017

>  <r_i_glide_energy>
-41.4272

>  <r_i_glide_einternal>
8.99806

>  <r_i_glide_emodel>
-54.9755

>  <r_glide_XP_HBond>
-0.7

>  <i_i_glide_confnum>
1

>  <i_i_glide_posenum>
16

>  <r_i_glide_eff_state_penalty>
0.4347

>  <i_glide_XP_PoseRank>
1

$$$$
