BACE_45.smi:1
 OpenBabel09291822493D
Structure written by MMmdl.
 80 82  0  0  1  0  0  0  0  0999 V2000
   20.1726   42.4720   -2.3573 C   0  0  0  0  0  0  0  0  0  0  0  0
   21.5512   42.0578   -2.8945 C   0  0  0  0  0  0  0  0  0  0  0  0
   22.5355   43.2380   -2.9047 C   0  0  0  0  0  0  0  0  0  0  0  0
   21.4420   41.3988   -4.2642 C   0  0  0  0  0  0  0  0  0  0  0  0
   22.0771   40.1645   -4.5237 C   0  0  0  0  0  0  0  0  0  0  0  0
   21.9758   39.5673   -5.7944 C   0  0  0  0  0  0  0  0  0  0  0  0
   21.2449   40.2020   -6.8165 C   0  0  0  0  0  0  0  0  0  0  0  0
   20.6125   41.4383   -6.5725 C   0  0  0  0  0  0  0  0  0  0  0  0
   19.8284   42.1186   -7.6810 C   0  0  0  0  0  0  0  0  0  0  0  0
   18.5394   41.4800   -7.9263 N   0  0  0  0  0  0  0  0  0  0  0  0
   17.6650   42.2389   -8.8158 C   0  0  0  0  0  0  0  0  0  0  0  0
   16.4144   42.7351   -8.0623 C   0  0  1  0  0  0  0  0  0  0  0  0
   16.0809   43.9841   -8.6297 O   0  0  0  0  0  0  0  0  0  0  0  0
   15.2154   41.7537   -8.1730 C   0  0  2  0  0  0  0  0  0  0  0  0
   15.3538   40.3965   -7.4278 C   0  0  0  0  0  0  0  0  0  0  0  0
   16.1286   39.2780   -8.1204 C   0  0  0  0  0  0  0  0  0  0  0  0
   15.3989   38.5651   -9.2484 C   0  0  0  0  0  0  0  0  0  0  0  0
   17.3590   38.9217   -7.6959 C   0  0  0  0  0  0  0  0  0  0  0  0
   18.2430   37.8179   -8.2580 C   0  0  0  0  0  0  0  0  0  0  0  0
   19.6809   38.2891   -8.5316 C   0  0  0  0  0  0  0  0  0  0  0  0
   19.7588   39.3444   -9.6432 C   0  0  0  0  0  0  0  0  0  0  0  0
   21.1913   39.8060   -9.9606 C   0  0  0  0  0  0  0  0  0  0  0  0
   21.2645   41.1180  -10.7687 C   0  0  0  0  0  0  0  0  0  0  0  0
   20.8422   41.0183  -12.2505 C   0  0  0  0  0  0  0  0  0  0  0  0
   19.4221   40.7467  -12.4431 N   0  0  0  0  0  0  0  0  0  0  0  0
   18.4675   41.6839  -12.0250 C   0  0  0  0  0  0  0  0  0  0  0  0
   17.2024   41.2157  -11.6142 C   0  0  0  0  0  0  0  0  0  0  0  0
   16.2391   42.1479  -11.1762 C   0  0  0  0  0  0  0  0  0  0  0  0
   16.5622   43.5201  -11.2280 C   0  0  0  0  0  0  0  0  0  0  0  0
   17.8560   43.8912  -11.6447 C   0  0  0  0  0  0  0  0  0  0  0  0
   18.2693   45.3475  -11.6669 C   0  0  0  0  0  0  0  0  0  0  0  0
   18.7923   42.9978  -12.0309 N   0  0  0  0  0  0  0  0  0  0  0  0
   14.8722   41.6955  -10.7644 C   0  0  0  0  0  0  0  0  0  0  0  0
   14.0713   41.3826  -11.6423 O   0  0  0  0  0  0  0  0  0  0  0  0
   14.5094   41.6565   -9.4635 N   0  0  0  0  0  0  0  0  0  0  0  0
   20.7062   42.0272   -5.2921 C   0  0  0  0  0  0  0  0  0  0  0  0
   16.6935   42.8466   -7.0176 H   0  0  0  0  0  0  0  0  0  0  0  0
   14.4403   42.2649   -7.6011 H   0  0  0  0  0  0  0  0  0  0  0  0
   19.5025   41.6140   -2.2972 H   0  0  0  0  0  0  0  0  0  0  0  0
   19.7000   43.2198   -2.9948 H   0  0  0  0  0  0  0  0  0  0  0  0
   20.2538   42.8956   -1.3559 H   0  0  0  0  0  0  0  0  0  0  0  0
   21.9528   41.3164   -2.2023 H   0  0  0  0  0  0  0  0  0  0  0  0
   23.5228   42.9204   -3.2410 H   0  0  0  0  0  0  0  0  0  0  0  0
   22.6487   43.6606   -1.9060 H   0  0  0  0  0  0  0  0  0  0  0  0
   22.2001   44.0388   -3.5640 H   0  0  0  0  0  0  0  0  0  0  0  0
   22.6457   39.6701   -3.7497 H   0  0  0  0  0  0  0  0  0  0  0  0
   22.4618   38.6220   -5.9860 H   0  0  0  0  0  0  0  0  0  0  0  0
   21.1753   39.7374   -7.7891 H   0  0  0  0  0  0  0  0  0  0  0  0
   19.6779   43.1663   -7.4173 H   0  0  0  0  0  0  0  0  0  0  0  0
   20.4329   42.1071   -8.5886 H   0  0  0  0  0  0  0  0  0  0  0  0
   18.0645   41.3314   -7.0419 H   0  0  0  0  0  0  0  0  0  0  0  0
   18.2061   43.0711   -9.2682 H   0  0  0  0  0  0  0  0  0  0  0  0
   17.3549   41.5900   -9.6356 H   0  0  0  0  0  0  0  0  0  0  0  0
   15.4163   44.3901   -8.0952 H   0  0  0  0  0  0  0  0  0  0  0  0
   15.7977   40.5746   -6.4482 H   0  0  0  0  0  0  0  0  0  0  0  0
   14.3575   40.0102   -7.2089 H   0  0  0  0  0  0  0  0  0  0  0  0
   14.3187   38.6544   -9.1311 H   0  0  0  0  0  0  0  0  0  0  0  0
   15.6273   37.5002   -9.2657 H   0  0  0  0  0  0  0  0  0  0  0  0
   15.6720   38.9862  -10.2131 H   0  0  0  0  0  0  0  0  0  0  0  0
   17.7886   39.4564   -6.8610 H   0  0  0  0  0  0  0  0  0  0  0  0
   18.2646   37.0081   -7.5282 H   0  0  0  0  0  0  0  0  0  0  0  0
   17.8252   37.3989   -9.1722 H   0  0  0  0  0  0  0  0  0  0  0  0
   20.1188   38.6837   -7.6137 H   0  0  0  0  0  0  0  0  0  0  0  0
   20.2883   37.4284   -8.8138 H   0  0  0  0  0  0  0  0  0  0  0  0
   19.2938   38.9382  -10.5406 H   0  0  0  0  0  0  0  0  0  0  0  0
   19.1675   40.2104   -9.3540 H   0  0  0  0  0  0  0  0  0  0  0  0
   21.7174   39.9695   -9.0192 H   0  0  0  0  0  0  0  0  0  0  0  0
   21.7356   39.0133  -10.4752 H   0  0  0  0  0  0  0  0  0  0  0  0
   20.6982   41.8989  -10.2599 H   0  0  0  0  0  0  0  0  0  0  0  0
   22.3000   41.4583  -10.7495 H   0  0  0  0  0  0  0  0  0  0  0  0
   21.1007   41.9403  -12.7724 H   0  0  0  0  0  0  0  0  0  0  0  0
   21.4092   40.2263  -12.7395 H   0  0  0  0  0  0  0  0  0  0  0  0
   19.1466   39.7762  -12.4038 H   0  0  0  0  0  0  0  0  0  0  0  0
   16.9815   40.1589  -11.6293 H   0  0  0  0  0  0  0  0  0  0  0  0
   15.8411   44.2704  -10.9372 H   0  0  0  0  0  0  0  0  0  0  0  0
   17.4152   45.9886  -11.8865 H   0  0  0  0  0  0  0  0  0  0  0  0
   19.0318   45.5286  -12.4255 H   0  0  0  0  0  0  0  0  0  0  0  0
   18.6742   45.6356  -10.6964 H   0  0  0  0  0  0  0  0  0  0  0  0
   13.5391   41.4038   -9.3440 H   0  0  0  0  0  0  0  0  0  0  0  0
   20.2162   42.9706   -5.1004 H   0  0  0  0  0  0  0  0  0  0  0  0
  1  2  1  0  0  0  0
  1 39  1  0  0  0  0
  1 40  1  0  0  0  0
  1 41  1  0  0  0  0
  2  3  1  0  0  0  0
  2  4  1  0  0  0  0
  2 42  1  0  0  0  0
  3 43  1  0  0  0  0
  3 44  1  0  0  0  0
  3 45  1  0  0  0  0
  4 36  1  0  0  0  0
  4  5  2  0  0  0  0
  5  6  1  0  0  0  0
  5 46  1  0  0  0  0
  6  7  2  0  0  0  0
  6 47  1  0  0  0  0
  7  8  1  0  0  0  0
  7 48  1  0  0  0  0
  8  9  1  0  0  0  0
  8 36  2  0  0  0  0
  9 10  1  0  0  0  0
  9 49  1  0  0  0  0
  9 50  1  0  0  0  0
 10 11  1  0  0  0  0
 10 51  1  0  0  0  0
 11 12  1  0  0  0  0
 11 52  1  0  0  0  0
 11 53  1  0  0  0  0
 12 37  1  1  0  0  0
 12 13  1  0  0  0  0
 12 14  1  0  0  0  0
 13 54  1  0  0  0  0
 14 38  1  1  0  0  0
 14 35  1  0  0  0  0
 14 15  1  0  0  0  0
 15 16  1  0  0  0  0
 15 55  1  0  0  0  0
 15 56  1  0  0  0  0
 16 17  1  0  0  0  0
 16 18  2  0  0  0  0
 17 57  1  0  0  0  0
 17 58  1  0  0  0  0
 17 59  1  0  0  0  0
 18 19  1  0  0  0  0
 18 60  1  0  0  0  0
 19 20  1  0  0  0  0
 19 61  1  0  0  0  0
 19 62  1  0  0  0  0
 20 21  1  0  0  0  0
 20 63  1  0  0  0  0
 20 64  1  0  0  0  0
 21 22  1  0  0  0  0
 21 65  1  0  0  0  0
 21 66  1  0  0  0  0
 22 23  1  0  0  0  0
 22 67  1  0  0  0  0
 22 68  1  0  0  0  0
 23 24  1  0  0  0  0
 23 69  1  0  0  0  0
 23 70  1  0  0  0  0
 24 25  1  0  0  0  0
 24 71  1  0  0  0  0
 24 72  1  0  0  0  0
 25 26  1  0  0  0  0
 25 73  1  0  0  0  0
 26 32  1  0  0  0  0
 26 27  2  0  0  0  0
 27 28  1  0  0  0  0
 27 74  1  0  0  0  0
 28 29  2  0  0  0  0
 28 33  1  0  0  0  0
 29 30  1  0  0  0  0
 29 75  1  0  0  0  0
 30 31  1  0  0  0  0
 30 32  2  0  0  0  0
 31 76  1  0  0  0  0
 31 77  1  0  0  0  0
 31 78  1  0  0  0  0
 33 34  2  0  0  0  0
 33 35  1  0  0  0  0
 35 79  1  0  0  0  0
 36 80  1  0  0  0  0
M  END
>  <s_m_source_file>
BACE_45.smi

>  <i_m_source_file_index>
1

>  <i_lp_mmshare_version>
42013

>  <i_f3d_flags>
0

>  <s_epik_input>
W0NIM11bQ0hdKFtDSDNdKWMxW2NIXVtjSF1bY0hdYyhbY0hdMSlbQ0gyXVtOSF1bQ0gyXVtDQEBIXShbT0hdKVtDQEBIXShbTkhdQyg9TyljKFtjSF1jMjMpW2NIXWMobjMpW0NIM10pW0NIMl0vQyhbQ0gzXSk9W0NIXS9bQ0gyXVtDSDJdW0NIMl1bQ0gyXVtDSDJdW0NIMl1bTkhdMg==

>  <s_epik_cmdline>
J2VwaWtfcHl0aG9uJywgJy1waCcsICc3LjAnLCAnLXRuJywgJzgnLCAnLW1hJywgJzIwMCcsICctaW1hZScsICc8aW5maWxlLm1hZT4nLCAnLW9tYWUnLCAnPG91dGZpbGUubWFlPic=

>  <r_lp_tautomer_probability>
1

>  <r_epik_Ionization_Penalty>
2.0751

>  <r_epik_Ionization_Penalty_Charging>
0.0000

>  <r_epik_Ionization_Penalty_Neutral>
2.0751

>  <r_epik_State_Penalty>
2.2595

>  <r_epik_Charging_Adjusted_Penalty>
2.25946

>  <i_epik_Tot_Q>
0

>  <i_epik_Tot_abs_Q>
0

>  <s_lp_Force_Field>
OPLS_2005

>  <r_lp_Energy>
45.1618

>  <b_lp_Chiralities_Consistent>
1

>  <s_lp_Variant>
BACE_45.smi:1-2

>  <chiral flag>
1

>  <version>
0

>  <s_i_glide_gridfile>
second_dock_grid_2

>  <i_i_glide_lignum>
84

>  <i_i_glide_rotatable_bonds>
7

>  <r_i_docking_score>
-3.10622

>  <r_i_glide_ligand_efficiency>
-0.0862838

>  <r_i_glide_ligand_efficiency_sa>
-0.284903

>  <r_i_glide_ligand_efficiency_ln>
-0.677693

>  <r_glide_XP_GScore>
-5.36572

>  <r_i_glide_gscore>
-5.36572

>  <r_i_glide_evdw>
-42.4128

>  <r_i_glide_ecoul>
-14.2665

>  <r_i_glide_energy>
-56.6793

>  <r_i_glide_einternal>
12.9758

>  <r_i_glide_emodel>
-81.9088

>  <r_glide_XP_HBond>
-0.914352

>  <i_i_glide_confnum>
1

>  <i_i_glide_posenum>
5

>  <r_i_glide_eff_state_penalty>
2.2595

>  <i_glide_XP_PoseRank>
1

$$$$
