BACE_40.smi:1
 OpenBabel09291822493D
Structure written by MMmdl.
 88 91  0  0  1  0  0  0  0  0999 V2000
   17.4980   51.8068  -10.7897 C   0  0  0  0  0  0  0  0  0  0  0  0
   18.8567   51.4466  -10.1672 C   0  0  0  0  0  0  0  0  0  0  0  0
   18.8705   50.0809   -9.6173 N   0  0  0  0  0  0  0  0  0  0  0  0
   19.4490   49.0451  -10.4995 C   0  0  0  0  0  0  0  0  0  0  0  0
   18.3825   48.2484  -11.2897 C   0  0  0  0  0  0  0  0  0  0  0  0
   18.9815   47.0387  -12.0312 C   0  0  0  0  0  0  0  0  0  0  0  0
   17.9470   46.1439  -12.7530 C   0  0  0  0  0  0  0  0  0  0  0  0
   17.0904   45.2342  -11.8422 C   0  0  0  0  0  0  0  0  0  0  0  0
   17.6701   43.8191  -11.5509 C   0  0  1  0  0  0  0  0  0  0  0  0
   19.0539   43.8391  -10.8736 C   0  0  0  0  0  0  0  0  0  0  0  0
   16.6770   42.8673  -10.8194 C   0  0  0  0  0  0  0  0  0  0  0  0
   15.8928   43.4216   -9.5996 C   0  0  2  0  0  0  0  0  0  0  0  0
   16.7765   44.1601   -8.6988 N   0  0  0  0  0  0  0  0  0  0  0  0
   16.4227   45.3121   -8.1159 C   0  0  0  0  0  0  0  0  0  0  0  0
   15.2615   45.7162   -8.0401 O   0  0  0  0  0  0  0  0  0  0  0  0
   17.5523   46.2108   -7.7252 C   0  0  0  0  0  0  0  0  0  0  0  0
   17.4463   47.5744   -8.0472 C   0  0  0  0  0  0  0  0  0  0  0  0
   18.5169   48.4512   -7.8285 C   0  0  0  0  0  0  0  0  0  0  0  0
   19.6766   47.9803   -7.1752 C   0  0  0  0  0  0  0  0  0  0  0  0
   19.7807   46.6214   -6.7966 C   0  0  0  0  0  0  0  0  0  0  0  0
   18.7177   45.7325   -7.0839 C   0  0  0  0  0  0  0  0  0  0  0  0
   20.9980   46.1351   -6.1506 C   0  0  0  0  0  0  0  0  0  0  0  0
   22.0594   46.8377   -5.7487 N   0  0  0  0  0  0  0  0  0  0  0  0
   22.9474   45.9012   -5.2399 C   0  0  0  0  0  0  0  0  0  0  0  0
   22.3614   44.6675   -5.3388 C   0  0  0  0  0  0  0  0  0  0  0  0
   21.1258   44.7994   -5.9148 O   0  0  0  0  0  0  0  0  0  0  0  0
   18.4185   49.8488   -8.3550 C   0  0  0  0  0  0  0  0  0  0  0  0
   17.9059   50.7196   -7.6466 O   0  0  0  0  0  0  0  0  0  0  0  0
   15.0996   42.3261   -8.8434 C   0  0  2  0  0  0  0  0  0  0  0  0
   14.1220   42.9502   -8.0401 O   0  0  0  0  0  0  0  0  0  0  0  0
   15.9603   41.4299   -7.9332 C   0  0  0  0  0  0  0  0  0  0  0  0
   15.3408   40.1165   -7.7500 N   0  0  0  0  0  0  0  0  0  0  0  0
   16.1712   39.1635   -7.0177 C   0  0  0  0  0  0  0  0  0  0  0  0
   17.4244   38.7794   -7.7860 C   0  0  0  0  0  0  0  0  0  0  0  0
   18.6698   39.3561   -7.4564 C   0  0  0  0  0  0  0  0  0  0  0  0
   19.8253   39.0564   -8.2098 C   0  0  0  0  0  0  0  0  0  0  0  0
   19.7228   38.1498   -9.2888 C   0  0  0  0  0  0  0  0  0  0  0  0
   18.4818   37.5703   -9.6135 C   0  0  0  0  0  0  0  0  0  0  0  0
   17.3340   37.8838   -8.8661 C   0  0  0  0  0  0  0  0  0  0  0  0
   21.1514   39.7191   -7.8420 C   0  0  0  0  0  0  0  0  0  0  0  0
   22.1022   39.9104   -9.0377 C   0  0  0  0  0  0  0  0  0  0  0  0
   21.8439   38.9703   -6.6967 C   0  0  0  0  0  0  0  0  0  0  0  0
   17.8400   43.3518  -12.5219 H   0  0  0  0  0  0  0  0  0  0  0  0
   15.1603   44.1142  -10.0201 H   0  0  0  0  0  0  0  0  0  0  0  0
   14.5774   41.7116   -9.5793 H   0  0  0  0  0  0  0  0  0  0  0  0
   17.4954   52.8455  -11.1288 H   0  0  0  0  0  0  0  0  0  0  0  0
   16.6748   51.6911  -10.0789 H   0  0  0  0  0  0  0  0  0  0  0  0
   17.2869   51.1799  -11.6608 H   0  0  0  0  0  0  0  0  0  0  0  0
   19.6393   51.5719  -10.9191 H   0  0  0  0  0  0  0  0  0  0  0  0
   19.0996   52.1727   -9.3877 H   0  0  0  0  0  0  0  0  0  0  0  0
   20.1489   49.4920  -11.2058 H   0  0  0  0  0  0  0  0  0  0  0  0
   20.0698   48.3597   -9.9184 H   0  0  0  0  0  0  0  0  0  0  0  0
   17.5927   47.9064  -10.6257 H   0  0  0  0  0  0  0  0  0  0  0  0
   17.8945   48.9038  -12.0106 H   0  0  0  0  0  0  0  0  0  0  0  0
   19.6881   47.4137  -12.7728 H   0  0  0  0  0  0  0  0  0  0  0  0
   19.5725   46.4484  -11.3356 H   0  0  0  0  0  0  0  0  0  0  0  0
   17.2812   46.7888  -13.3289 H   0  0  0  0  0  0  0  0  0  0  0  0
   18.4594   45.5286  -13.4940 H   0  0  0  0  0  0  0  0  0  0  0  0
   16.8626   45.7579  -10.9167 H   0  0  0  0  0  0  0  0  0  0  0  0
   16.1274   45.0892  -12.3359 H   0  0  0  0  0  0  0  0  0  0  0  0
   19.0733   44.4676   -9.9849 H   0  0  0  0  0  0  0  0  0  0  0  0
   19.8175   44.2100  -11.5583 H   0  0  0  0  0  0  0  0  0  0  0  0
   19.3677   42.8380  -10.5806 H   0  0  0  0  0  0  0  0  0  0  0  0
   15.9399   42.5229  -11.5445 H   0  0  0  0  0  0  0  0  0  0  0  0
   17.2107   41.9624  -10.5273 H   0  0  0  0  0  0  0  0  0  0  0  0
   17.7552   43.9118   -8.7146 H   0  0  0  0  0  0  0  0  0  0  0  0
   16.5582   47.9386   -8.5454 H   0  0  0  0  0  0  0  0  0  0  0  0
   20.5019   48.6546   -6.9969 H   0  0  0  0  0  0  0  0  0  0  0  0
   18.7971   44.6853   -6.8284 H   0  0  0  0  0  0  0  0  0  0  0  0
   23.9105   46.1780   -4.8380 H   0  0  0  0  0  0  0  0  0  0  0  0
   22.6675   43.6682   -5.0651 H   0  0  0  0  0  0  0  0  0  0  0  0
   14.4584   42.9501   -7.1476 H   0  0  0  0  0  0  0  0  0  0  0  0
   16.9362   41.3023   -8.4010 H   0  0  0  0  0  0  0  0  0  0  0  0
   16.1500   41.9043   -6.9650 H   0  0  0  0  0  0  0  0  0  0  0  0
   14.4603   40.2316   -7.2470 H   0  0  0  0  0  0  0  0  0  0  0  0
   16.4433   39.5587   -6.0383 H   0  0  0  0  0  0  0  0  0  0  0  0
   15.5908   38.2564   -6.8412 H   0  0  0  0  0  0  0  0  0  0  0  0
   18.7342   40.0536   -6.6341 H   0  0  0  0  0  0  0  0  0  0  0  0
   20.5867   37.8811   -9.8792 H   0  0  0  0  0  0  0  0  0  0  0  0
   18.4111   36.8832  -10.4399 H   0  0  0  0  0  0  0  0  0  0  0  0
   16.3793   37.4490   -9.1268 H   0  0  0  0  0  0  0  0  0  0  0  0
   20.9088   40.7196   -7.4755 H   0  0  0  0  0  0  0  0  0  0  0  0
   21.6100   40.4470   -9.8467 H   0  0  0  0  0  0  0  0  0  0  0  0
   22.4611   38.9589   -9.4308 H   0  0  0  0  0  0  0  0  0  0  0  0
   22.9814   40.4876   -8.7512 H   0  0  0  0  0  0  0  0  0  0  0  0
   21.2158   38.9521   -5.8062 H   0  0  0  0  0  0  0  0  0  0  0  0
   22.7856   39.4492   -6.4307 H   0  0  0  0  0  0  0  0  0  0  0  0
   22.0571   37.9389   -6.9757 H   0  0  0  0  0  0  0  0  0  0  0  0
  1  2  1  0  0  0  0
  1 46  1  0  0  0  0
  1 47  1  0  0  0  0
  1 48  1  0  0  0  0
  2  3  1  0  0  0  0
  2 49  1  0  0  0  0
  2 50  1  0  0  0  0
  3 27  1  0  0  0  0
  3  4  1  0  0  0  0
  4  5  1  0  0  0  0
  4 51  1  0  0  0  0
  4 52  1  0  0  0  0
  5  6  1  0  0  0  0
  5 53  1  0  0  0  0
  5 54  1  0  0  0  0
  6  7  1  0  0  0  0
  6 55  1  0  0  0  0
  6 56  1  0  0  0  0
  7  8  1  0  0  0  0
  7 57  1  0  0  0  0
  7 58  1  0  0  0  0
  8  9  1  0  0  0  0
  8 59  1  0  0  0  0
  8 60  1  0  0  0  0
  9 43  1  6  0  0  0
  9 10  1  0  0  0  0
  9 11  1  0  0  0  0
 10 61  1  0  0  0  0
 10 62  1  0  0  0  0
 10 63  1  0  0  0  0
 11 12  1  0  0  0  0
 11 64  1  0  0  0  0
 11 65  1  0  0  0  0
 12 44  1  6  0  0  0
 12 13  1  0  0  0  0
 12 29  1  0  0  0  0
 13 14  1  0  0  0  0
 13 66  1  0  0  0  0
 14 15  2  0  0  0  0
 14 16  1  0  0  0  0
 16 21  1  0  0  0  0
 16 17  2  0  0  0  0
 17 18  1  0  0  0  0
 17 67  1  0  0  0  0
 18 19  2  0  0  0  0
 18 27  1  0  0  0  0
 19 20  1  0  0  0  0
 19 68  1  0  0  0  0
 20 21  2  0  0  0  0
 20 22  1  0  0  0  0
 21 69  1  0  0  0  0
 22 26  1  0  0  0  0
 22 23  2  0  0  0  0
 23 24  1  0  0  0  0
 24 25  2  0  0  0  0
 24 70  1  0  0  0  0
 25 26  1  0  0  0  0
 25 71  1  0  0  0  0
 27 28  2  0  0  0  0
 29 45  1  6  0  0  0
 29 30  1  0  0  0  0
 29 31  1  0  0  0  0
 30 72  1  0  0  0  0
 31 32  1  0  0  0  0
 31 73  1  0  0  0  0
 31 74  1  0  0  0  0
 32 33  1  0  0  0  0
 32 75  1  0  0  0  0
 33 34  1  0  0  0  0
 33 76  1  0  0  0  0
 33 77  1  0  0  0  0
 34 39  1  0  0  0  0
 34 35  2  0  0  0  0
 35 36  1  0  0  0  0
 35 78  1  0  0  0  0
 36 37  2  0  0  0  0
 36 40  1  0  0  0  0
 37 38  1  0  0  0  0
 37 79  1  0  0  0  0
 38 39  2  0  0  0  0
 38 80  1  0  0  0  0
 39 81  1  0  0  0  0
 40 41  1  0  0  0  0
 40 42  1  0  0  0  0
 40 82  1  0  0  0  0
 41 83  1  0  0  0  0
 41 84  1  0  0  0  0
 41 85  1  0  0  0  0
 42 86  1  0  0  0  0
 42 87  1  0  0  0  0
 42 88  1  0  0  0  0
M  END
>  <s_m_source_file>
BACE_40.smi

>  <i_m_source_file_index>
1

>  <i_lp_mmshare_version>
42013

>  <i_f3d_flags>
0

>  <s_epik_input>
bzFbY0hdW2NIXW5jMS1jKFtjSF0yKVtjSF1jKFtjSF1jMjMpQyg9TylOKFtDSDJdW0NIM10pW0NIMl1bQ0gyXVtDSDJdW0NIMl1bQ0gyXVtDQEBIXShbQ0gzXSlbQ0gyXVtDQEhdKFtOSF1DMz1PKVtDQEhdKFtPSF0pW0NIMl1bTkhdW0NIMl1jNFtjSF1jKFtDSF0oW0NIM10pW0NIM10pW2NIXVtjSF1bY0hdNA==

>  <s_epik_cmdline>
J2VwaWtfcHl0aG9uJywgJy1waCcsICc3LjAnLCAnLXRuJywgJzgnLCAnLW1hJywgJzIwMCcsICctaW1hZScsICc8aW5maWxlLm1hZT4nLCAnLW9tYWUnLCAnPG91dGZpbGUubWFlPic=

>  <r_epik_Ionization_Penalty>
2.1294

>  <r_epik_Ionization_Penalty_Charging>
0.0000

>  <r_epik_Ionization_Penalty_Neutral>
2.1294

>  <r_epik_State_Penalty>
2.2676

>  <r_epik_Charging_Adjusted_Penalty>
2.26762

>  <i_epik_Tot_Q>
0

>  <i_epik_Tot_abs_Q>
0

>  <s_lp_Force_Field>
OPLS_2005

>  <r_lp_Energy>
58.3973

>  <b_lp_Chiralities_Consistent>
1

>  <s_lp_Variant>
BACE_40.smi:1-2

>  <chiral flag>
1

>  <version>
0

>  <s_i_glide_gridfile>
second_dock_grid_2

>  <i_i_glide_lignum>
72

>  <i_i_glide_rotatable_bonds>
9

>  <r_i_docking_score>
-2.86156

>  <r_i_glide_ligand_efficiency>
-0.0681323

>  <r_i_glide_ligand_efficiency_sa>
-0.23683

>  <r_i_glide_ligand_efficiency_ln>
-0.604001

>  <r_glide_XP_GScore>
-5.12916

>  <r_i_glide_gscore>
-5.12916

>  <r_i_glide_evdw>
-39.7336

>  <r_i_glide_ecoul>
-11.3857

>  <r_i_glide_energy>
-51.1192

>  <r_i_glide_einternal>
6.83379

>  <r_i_glide_emodel>
-69.6236

>  <r_glide_XP_HBond>
-1.51918

>  <i_i_glide_confnum>
1

>  <i_i_glide_posenum>
9

>  <r_i_glide_eff_state_penalty>
2.2676

>  <i_glide_XP_PoseRank>
1

$$$$
