BACE_7.smi:1
 OpenBabel09291822493D
Structure written by MMmdl.
 98102  0  0  1  0  0  0  0  0999 V2000
   12.1243   49.1187  -13.2401 C   0  0  0  0  0  0  0  0  0  0  0  0
   13.2127   48.4384  -14.0828 C   0  0  0  0  0  0  0  0  0  0  0  0
   13.2965   49.0930  -15.4733 C   0  0  0  0  0  0  0  0  0  0  0  0
   12.9754   46.9306  -14.1017 C   0  0  0  0  0  0  0  0  0  0  0  0
   13.2133   46.2010  -12.9168 C   0  0  0  0  0  0  0  0  0  0  0  0
   12.9103   44.8273  -12.8407 C   0  0  0  0  0  0  0  0  0  0  0  0
   13.0298   44.1167  -11.5064 C   0  0  0  0  0  0  0  0  0  0  0  0
   13.5480   42.7722  -11.6374 N   0  0  0  0  0  0  0  0  0  0  0  0
   13.7914   42.1131  -10.3573 C   0  0  0  0  0  0  0  0  0  0  0  0
   14.8956   41.0481  -10.4910 C   0  0  1  0  0  0  0  0  0  0  0  0
   14.4600   40.1488  -11.4857 O   0  0  0  0  0  0  0  0  0  0  0  0
   16.3033   41.5887  -10.8627 C   0  0  2  0  0  0  0  0  0  0  0  0
   17.4369   40.5875  -10.5231 C   0  0  0  0  0  0  0  0  0  0  0  0
   18.8785   41.0993  -10.7893 C   0  0  2  0  0  0  0  0  0  0  0  0
   19.2130   41.1485  -12.2903 C   0  0  0  0  0  0  0  0  0  0  0  0
   19.9215   40.2932   -9.9859 C   0  0  0  0  0  0  0  0  0  0  0  0
   21.3621   40.8464  -10.0335 C   0  0  0  0  0  0  0  0  0  0  0  0
   21.5156   42.3503   -9.7241 C   0  0  0  0  0  0  0  0  0  0  0  0
   20.9982   42.7836   -8.3416 C   0  0  0  0  0  0  0  0  0  0  0  0
   21.1963   44.2961   -8.1036 C   0  0  0  0  0  0  0  0  0  0  0  0
   20.6467   44.7908   -6.8174 N   0  0  0  0  0  0  0  0  0  0  0  0
   21.5356   44.6542   -5.6253 C   0  0  2  0  0  0  0  0  0  0  0  0
   22.9480   45.2468   -5.8229 C   0  0  0  0  0  0  0  0  0  0  0  0
   21.5149   43.2753   -4.9599 C   0  0  0  0  0  0  0  0  0  0  0  0
   20.4883   42.9570   -4.0441 C   0  0  0  0  0  0  0  0  0  0  0  0
   20.4602   41.7014   -3.4015 C   0  0  0  0  0  0  0  0  0  0  0  0
   21.4418   40.7376   -3.6943 C   0  0  0  0  0  0  0  0  0  0  0  0
   22.4704   41.0468   -4.5975 C   0  0  0  0  0  0  0  0  0  0  0  0
   22.5150   42.3116   -5.2174 C   0  0  0  0  0  0  0  0  0  0  0  0
   19.4684   45.4811   -6.7083 C   0  0  0  0  0  0  0  0  0  0  0  0
   19.0519   45.9276   -5.6399 O   0  0  0  0  0  0  0  0  0  0  0  0
   18.6422   45.8068   -7.9247 C   0  0  0  0  0  0  0  0  0  0  0  0
   18.0965   44.7943   -8.7416 C   0  0  0  0  0  0  0  0  0  0  0  0
   17.3097   45.1158   -9.8725 C   0  0  0  0  0  0  0  0  0  0  0  0
   17.0476   46.4720  -10.1662 C   0  0  0  0  0  0  0  0  0  0  0  0
   17.5378   47.4950   -9.3254 C   0  0  0  0  0  0  0  0  0  0  0  0
   18.3313   47.1555   -8.2064 C   0  0  0  0  0  0  0  0  0  0  0  0
   17.2701   48.8971   -9.6361 C   0  0  0  0  0  0  0  0  0  0  0  0
   17.2604   49.9510   -8.8139 N   0  0  0  0  0  0  0  0  0  0  0  0
   17.0038   51.0452   -9.6290 C   0  0  0  0  0  0  0  0  0  0  0  0
   16.8601   50.5931  -10.9139 C   0  0  0  0  0  0  0  0  0  0  0  0
   17.0135   49.2329  -10.9299 O   0  0  0  0  0  0  0  0  0  0  0  0
   16.8164   44.0337  -10.7886 C   0  0  0  0  0  0  0  0  0  0  0  0
   16.6607   44.2381  -11.9935 O   0  0  0  0  0  0  0  0  0  0  0  0
   16.5657   42.8594  -10.1881 N   0  0  0  0  0  0  0  0  0  0  0  0
   12.4598   44.1516  -13.9959 C   0  0  0  0  0  0  0  0  0  0  0  0
   12.1942   44.8735  -15.1786 C   0  0  0  0  0  0  0  0  0  0  0  0
   12.4598   46.2566  -15.2338 C   0  0  0  0  0  0  0  0  0  0  0  0
   14.9524   40.5097   -9.5437 H   0  0  0  0  0  0  0  0  0  0  0  0
   16.3205   41.7533  -11.9393 H   0  0  0  0  0  0  0  0  0  0  0  0
   18.9419   42.1177  -10.4142 H   0  0  0  0  0  0  0  0  0  0  0  0
   21.1568   45.3078   -4.8405 H   0  0  0  0  0  0  0  0  0  0  0  0
   12.0599   48.7189  -12.2305 H   0  0  0  0  0  0  0  0  0  0  0  0
   11.1549   48.9511  -13.6954 H   0  0  0  0  0  0  0  0  0  0  0  0
   12.2932   50.1947  -13.1753 H   0  0  0  0  0  0  0  0  0  0  0  0
   14.1773   48.6000  -13.5985 H   0  0  0  0  0  0  0  0  0  0  0  0
   14.0599   48.6252  -16.0923 H   0  0  0  0  0  0  0  0  0  0  0  0
   13.5505   50.1508  -15.3896 H   0  0  0  0  0  0  0  0  0  0  0  0
   12.3470   49.0336  -16.0069 H   0  0  0  0  0  0  0  0  0  0  0  0
   13.5887   46.7098  -12.0413 H   0  0  0  0  0  0  0  0  0  0  0  0
   13.6869   44.6992  -10.8616 H   0  0  0  0  0  0  0  0  0  0  0  0
   12.0492   44.0975  -11.0300 H   0  0  0  0  0  0  0  0  0  0  0  0
   12.8576   42.2181  -12.1264 H   0  0  0  0  0  0  0  0  0  0  0  0
   14.0751   42.8333   -9.5898 H   0  0  0  0  0  0  0  0  0  0  0  0
   12.8659   41.6579  -10.0018 H   0  0  0  0  0  0  0  0  0  0  0  0
   13.5944   39.8370  -11.2360 H   0  0  0  0  0  0  0  0  0  0  0  0
   17.3493   40.3336   -9.4661 H   0  0  0  0  0  0  0  0  0  0  0  0
   17.2791   39.6528  -11.0604 H   0  0  0  0  0  0  0  0  0  0  0  0
   19.2577   40.1509  -12.7212 H   0  0  0  0  0  0  0  0  0  0  0  0
   20.1753   41.6277  -12.4677 H   0  0  0  0  0  0  0  0  0  0  0  0
   18.4698   41.7237  -12.8382 H   0  0  0  0  0  0  0  0  0  0  0  0
   19.6139   40.2495   -8.9423 H   0  0  0  0  0  0  0  0  0  0  0  0
   19.9267   39.2590  -10.3291 H   0  0  0  0  0  0  0  0  0  0  0  0
   21.9786   40.2744   -9.3357 H   0  0  0  0  0  0  0  0  0  0  0  0
   21.7844   40.6485  -11.0188 H   0  0  0  0  0  0  0  0  0  0  0  0
   22.5743   42.6021   -9.7933 H   0  0  0  0  0  0  0  0  0  0  0  0
   21.0304   42.9377  -10.5036 H   0  0  0  0  0  0  0  0  0  0  0  0
   19.9529   42.5093   -8.2277 H   0  0  0  0  0  0  0  0  0  0  0  0
   21.5308   42.2111   -7.5904 H   0  0  0  0  0  0  0  0  0  0  0  0
   22.2576   44.5218   -8.1843 H   0  0  0  0  0  0  0  0  0  0  0  0
   20.7755   44.8518   -8.9425 H   0  0  0  0  0  0  0  0  0  0  0  0
   23.4672   45.3158   -4.8664 H   0  0  0  0  0  0  0  0  0  0  0  0
   22.8986   46.2530   -6.2412 H   0  0  0  0  0  0  0  0  0  0  0  0
   23.5788   44.6500   -6.4774 H   0  0  0  0  0  0  0  0  0  0  0  0
   19.7184   43.6799   -3.8188 H   0  0  0  0  0  0  0  0  0  0  0  0
   19.6643   41.4714   -2.7073 H   0  0  0  0  0  0  0  0  0  0  0  0
   21.4083   39.7581   -3.2398 H   0  0  0  0  0  0  0  0  0  0  0  0
   23.2343   40.3132   -4.8114 H   0  0  0  0  0  0  0  0  0  0  0  0
   23.3145   42.5241   -5.9110 H   0  0  0  0  0  0  0  0  0  0  0  0
   18.2899   43.7643   -8.4965 H   0  0  0  0  0  0  0  0  0  0  0  0
   16.4606   46.7257  -11.0382 H   0  0  0  0  0  0  0  0  0  0  0  0
   18.7206   47.9362   -7.5680 H   0  0  0  0  0  0  0  0  0  0  0  0
   16.9459   52.0505   -9.2398 H   0  0  0  0  0  0  0  0  0  0  0  0
   16.6616   51.0725  -11.8613 H   0  0  0  0  0  0  0  0  0  0  0  0
   16.6701   42.8165   -9.1854 H   0  0  0  0  0  0  0  0  0  0  0  0
   12.2446   43.0945  -13.9719 H   0  0  0  0  0  0  0  0  0  0  0  0
   11.8077   44.3629  -16.0477 H   0  0  0  0  0  0  0  0  0  0  0  0
   12.2481   46.7827  -16.1521 H   0  0  0  0  0  0  0  0  0  0  0  0
  1  2  1  0  0  0  0
  1 53  1  0  0  0  0
  1 54  1  0  0  0  0
  1 55  1  0  0  0  0
  2  3  1  0  0  0  0
  2  4  1  0  0  0  0
  2 56  1  0  0  0  0
  3 57  1  0  0  0  0
  3 58  1  0  0  0  0
  3 59  1  0  0  0  0
  4 48  1  0  0  0  0
  4  5  2  0  0  0  0
  5  6  1  0  0  0  0
  5 60  1  0  0  0  0
  6  7  1  0  0  0  0
  6 46  2  0  0  0  0
  7  8  1  0  0  0  0
  7 61  1  0  0  0  0
  7 62  1  0  0  0  0
  8  9  1  0  0  0  0
  8 63  1  0  0  0  0
  9 10  1  0  0  0  0
  9 64  1  0  0  0  0
  9 65  1  0  0  0  0
 10 49  1  1  0  0  0
 10 11  1  0  0  0  0
 10 12  1  0  0  0  0
 11 66  1  0  0  0  0
 12 50  1  6  0  0  0
 12 45  1  0  0  0  0
 12 13  1  0  0  0  0
 13 14  1  0  0  0  0
 13 67  1  0  0  0  0
 13 68  1  0  0  0  0
 14 51  1  1  0  0  0
 14 15  1  0  0  0  0
 14 16  1  0  0  0  0
 15 69  1  0  0  0  0
 15 70  1  0  0  0  0
 15 71  1  0  0  0  0
 16 17  1  0  0  0  0
 16 72  1  0  0  0  0
 16 73  1  0  0  0  0
 17 18  1  0  0  0  0
 17 74  1  0  0  0  0
 17 75  1  0  0  0  0
 18 19  1  0  0  0  0
 18 76  1  0  0  0  0
 18 77  1  0  0  0  0
 19 20  1  0  0  0  0
 19 78  1  0  0  0  0
 19 79  1  0  0  0  0
 20 21  1  0  0  0  0
 20 80  1  0  0  0  0
 20 81  1  0  0  0  0
 21 22  1  0  0  0  0
 21 30  1  0  0  0  0
 22 52  1  1  0  0  0
 22 23  1  0  0  0  0
 22 24  1  0  0  0  0
 23 82  1  0  0  0  0
 23 83  1  0  0  0  0
 23 84  1  0  0  0  0
 24 29  1  0  0  0  0
 24 25  2  0  0  0  0
 25 26  1  0  0  0  0
 25 85  1  0  0  0  0
 26 27  2  0  0  0  0
 26 86  1  0  0  0  0
 27 28  1  0  0  0  0
 27 87  1  0  0  0  0
 28 29  2  0  0  0  0
 28 88  1  0  0  0  0
 29 89  1  0  0  0  0
 30 31  2  0  0  0  0
 30 32  1  0  0  0  0
 32 37  1  0  0  0  0
 32 33  2  0  0  0  0
 33 34  1  0  0  0  0
 33 90  1  0  0  0  0
 34 35  2  0  0  0  0
 34 43  1  0  0  0  0
 35 36  1  0  0  0  0
 35 91  1  0  0  0  0
 36 37  2  0  0  0  0
 36 38  1  0  0  0  0
 37 92  1  0  0  0  0
 38 42  1  0  0  0  0
 38 39  2  0  0  0  0
 39 40  1  0  0  0  0
 40 41  2  0  0  0  0
 40 93  1  0  0  0  0
 41 42  1  0  0  0  0
 41 94  1  0  0  0  0
 43 44  2  0  0  0  0
 43 45  1  0  0  0  0
 45 95  1  0  0  0  0
 46 47  1  0  0  0  0
 46 96  1  0  0  0  0
 47 48  2  0  0  0  0
 47 97  1  0  0  0  0
 48 98  1  0  0  0  0
M  END
>  <s_m_source_file>
BACE_7.smi

>  <i_m_source_file_index>
1

>  <i_lp_mmshare_version>
42013

>  <i_f3d_flags>
0

>  <s_epik_input>
bzFbY0hdW2NIXW5jMS1jKFtjSF0yKVtjSF1jKFtjSF1jMjMpQyg9TylbTkhdW0NASF0oW0NASF0oW09IXSlbQ0gyXVtOSF1bQ0gyXWMoW2NIXVtjSF1bY0hdNClbY0hdYzRbQ0hdKFtDSDNdKVtDSDNdKVtDSDJdW0NASF0oW0NIM10pW0NIMl1bQ0gyXVtDSDJdW0NIMl1bQ0gyXU4oQzM9TylbQ0BIXShbQ0gzXSljNVtjSF1bY0hdW2NIXVtjSF1bY0hdNQ==

>  <s_epik_cmdline>
J2VwaWtfcHl0aG9uJywgJy1waCcsICc3LjAnLCAnLXRuJywgJzgnLCAnLW1hJywgJzIwMCcsICctaW1hZScsICc8aW5maWxlLm1hZT4nLCAnLW9tYWUnLCAnPG91dGZpbGUubWFlPic=

>  <r_epik_Ionization_Penalty>
2.1294

>  <r_epik_Ionization_Penalty_Charging>
0.0000

>  <r_epik_Ionization_Penalty_Neutral>
2.1294

>  <r_epik_State_Penalty>
2.2676

>  <r_epik_Charging_Adjusted_Penalty>
2.26762

>  <i_epik_Tot_Q>
0

>  <i_epik_Tot_abs_Q>
0

>  <s_lp_Force_Field>
OPLS_2005

>  <r_lp_Energy>
57.4228

>  <b_lp_Chiralities_Consistent>
1

>  <s_lp_Variant>
BACE_7.smi:1-2

>  <chiral flag>
1

>  <version>
0

>  <s_i_glide_gridfile>
second_dock_grid_2

>  <i_i_glide_lignum>
11

>  <i_i_glide_rotatable_bonds>
10

>  <r_i_docking_score>
-2.68766

>  <r_i_glide_ligand_efficiency>
-0.0559929

>  <r_i_glide_ligand_efficiency_sa>
-0.203492

>  <r_i_glide_ligand_efficiency_ln>
-0.551745

>  <r_glide_XP_GScore>
-4.95526

>  <r_i_glide_gscore>
-4.95526

>  <r_i_glide_evdw>
-43.0374

>  <r_i_glide_ecoul>
-14.7878

>  <r_i_glide_energy>
-57.8252

>  <r_i_glide_einternal>
10.4191

>  <r_i_glide_emodel>
-69.6073

>  <r_glide_XP_HBond>
-1.50982

>  <i_i_glide_confnum>
1

>  <i_i_glide_posenum>
5

>  <r_i_glide_eff_state_penalty>
2.2676

>  <i_glide_XP_PoseRank>
1

$$$$
