BACE_126.smi:1
 OpenBabel09291822493D
Structure written by MMmdl.
 61 63  0  0  1  0  0  0  0  0999 V2000
   17.6127   48.1266   -6.0843 C   0  0  0  0  0  0  0  0  0  0  0  0
   18.4598   47.3504   -5.2568 O   0  0  0  0  0  0  0  0  0  0  0  0
   19.6559   46.9406   -5.9051 C   0  0  0  0  0  0  0  0  0  0  0  0
   19.6355   45.4600   -6.2265 C   0  0  0  0  0  0  0  0  0  0  0  0
   20.6945   44.6305   -5.8055 C   0  0  0  0  0  0  0  0  0  0  0  0
   20.7006   43.2564   -6.1130 C   0  0  0  0  0  0  0  0  0  0  0  0
   19.6139   42.7124   -6.8404 C   0  0  0  0  0  0  0  0  0  0  0  0
   18.5328   43.5300   -7.2519 C   0  0  0  0  0  0  0  0  0  0  0  0
   18.5649   44.9068   -6.9561 C   0  0  0  0  0  0  0  0  0  0  0  0
   17.3817   42.9677   -8.0393 C   0  0  0  0  0  0  0  0  0  0  0  0
   16.8408   43.6290   -8.9267 O   0  0  0  0  0  0  0  0  0  0  0  0
   16.9743   41.7418   -7.6854 N   0  0  0  0  0  0  0  0  0  0  0  0
   15.9169   40.9439   -8.3121 C   0  0  1  0  0  0  0  0  0  0  0  0
   16.3402   40.4478   -9.7271 C   0  0  0  0  0  0  0  0  0  0  0  0
   17.6242   39.6448   -9.7756 C   0  0  0  0  0  0  0  0  0  0  0  0
   17.5808   38.2477   -9.6396 C   0  0  0  0  0  0  0  0  0  0  0  0
   18.7691   37.5058   -9.6176 C   0  0  0  0  0  0  0  0  0  0  0  0
   20.0093   38.1510   -9.7702 C   0  0  0  0  0  0  0  0  0  0  0  0
   20.0641   39.5510   -9.9831 C   0  0  0  0  0  0  0  0  0  0  0  0
   18.8629   40.2865   -9.9809 C   0  0  0  0  0  0  0  0  0  0  0  0
   21.2240   40.2621  -10.2016 O   0  0  0  0  0  0  0  0  0  0  0  0
   22.4618   39.7065   -9.7702 C   0  0  0  0  0  0  0  0  0  0  0  0
   22.5684   39.7178   -8.2340 C   0  0  0  0  0  0  0  0  0  0  0  0
   22.4621   41.1356   -7.6546 C   0  0  0  0  0  0  0  0  0  0  0  0
   22.0427   41.1455   -6.1773 C   0  0  0  0  0  0  0  0  0  0  0  0
   21.8005   42.4942   -5.6825 N   0  0  0  0  0  0  0  0  0  0  0  0
   15.4380   39.8730   -7.2788 C   0  0  2  0  0  0  0  0  0  0  0  0
   16.5194   39.3392   -6.5501 O   0  0  0  0  0  0  0  0  0  0  0  0
   14.6093   38.6616   -7.7614 C   0  0  0  0  0  0  0  0  0  0  0  0
   13.6600   38.9531   -8.8400 N   0  0  0  0  0  0  0  0  0  0  0  0
   15.0589   41.6016   -8.4730 H   0  0  0  0  0  0  0  0  0  0  0  0
   14.8394   40.4043   -6.5381 H   0  0  0  0  0  0  0  0  0  0  0  0
   16.6195   48.1502   -5.6398 H   0  0  0  0  0  0  0  0  0  0  0  0
   17.5083   47.7101   -7.0848 H   0  0  0  0  0  0  0  0  0  0  0  0
   17.9857   49.1451   -6.1719 H   0  0  0  0  0  0  0  0  0  0  0  0
   20.4937   47.1518   -5.2409 H   0  0  0  0  0  0  0  0  0  0  0  0
   19.8520   47.5080   -6.8181 H   0  0  0  0  0  0  0  0  0  0  0  0
   21.5161   45.0549   -5.2479 H   0  0  0  0  0  0  0  0  0  0  0  0
   19.5936   41.6598   -7.0840 H   0  0  0  0  0  0  0  0  0  0  0  0
   17.7507   45.5328   -7.2790 H   0  0  0  0  0  0  0  0  0  0  0  0
   17.4119   41.3076   -6.8809 H   0  0  0  0  0  0  0  0  0  0  0  0
   15.5528   39.8669  -10.2018 H   0  0  0  0  0  0  0  0  0  0  0  0
   16.4687   41.3113  -10.3815 H   0  0  0  0  0  0  0  0  0  0  0  0
   16.6383   37.7375   -9.5464 H   0  0  0  0  0  0  0  0  0  0  0  0
   18.7173   36.4377   -9.4828 H   0  0  0  0  0  0  0  0  0  0  0  0
   20.8998   37.5450   -9.7388 H   0  0  0  0  0  0  0  0  0  0  0  0
   18.9010   41.3563  -10.1200 H   0  0  0  0  0  0  0  0  0  0  0  0
   22.5937   38.7074  -10.1759 H   0  0  0  0  0  0  0  0  0  0  0  0
   23.2650   40.3083  -10.1931 H   0  0  0  0  0  0  0  0  0  0  0  0
   21.7855   39.0859   -7.8134 H   0  0  0  0  0  0  0  0  0  0  0  0
   23.5133   39.2692   -7.9257 H   0  0  0  0  0  0  0  0  0  0  0  0
   23.4099   41.6610   -7.7862 H   0  0  0  0  0  0  0  0  0  0  0  0
   21.7313   41.7000   -8.2330 H   0  0  0  0  0  0  0  0  0  0  0  0
   21.1518   40.5343   -6.0202 H   0  0  0  0  0  0  0  0  0  0  0  0
   22.8320   40.6944   -5.5730 H   0  0  0  0  0  0  0  0  0  0  0  0
   22.5388   42.9482   -5.1642 H   0  0  0  0  0  0  0  0  0  0  0  0
   16.1625   38.6993   -5.9392 H   0  0  0  0  0  0  0  0  0  0  0  0
   15.2609   37.8443   -8.0559 H   0  0  0  0  0  0  0  0  0  0  0  0
   14.0601   38.2740   -6.9018 H   0  0  0  0  0  0  0  0  0  0  0  0
   12.9769   38.1973   -8.9251 H   0  0  0  0  0  0  0  0  0  0  0  0
   13.0974   39.7750   -8.5872 H   0  0  0  0  0  0  0  0  0  0  0  0
  1  2  1  0  0  0  0
  1 33  1  0  0  0  0
  1 34  1  0  0  0  0
  1 35  1  0  0  0  0
  2  3  1  0  0  0  0
  3  4  1  0  0  0  0
  3 36  1  0  0  0  0
  3 37  1  0  0  0  0
  4  9  1  0  0  0  0
  4  5  2  0  0  0  0
  5  6  1  0  0  0  0
  5 38  1  0  0  0  0
  6 26  1  0  0  0  0
  6  7  2  0  0  0  0
  7  8  1  0  0  0  0
  7 39  1  0  0  0  0
  8  9  2  0  0  0  0
  8 10  1  0  0  0  0
  9 40  1  0  0  0  0
 10 11  2  0  0  0  0
 10 12  1  0  0  0  0
 12 13  1  0  0  0  0
 12 41  1  0  0  0  0
 13 31  1  6  0  0  0
 13 14  1  0  0  0  0
 13 27  1  0  0  0  0
 14 15  1  0  0  0  0
 14 42  1  0  0  0  0
 14 43  1  0  0  0  0
 15 20  1  0  0  0  0
 15 16  2  0  0  0  0
 16 17  1  0  0  0  0
 16 44  1  0  0  0  0
 17 18  2  0  0  0  0
 17 45  1  0  0  0  0
 18 19  1  0  0  0  0
 18 46  1  0  0  0  0
 19 20  2  0  0  0  0
 19 21  1  0  0  0  0
 20 47  1  0  0  0  0
 21 22  1  0  0  0  0
 22 23  1  0  0  0  0
 22 48  1  0  0  0  0
 22 49  1  0  0  0  0
 23 24  1  0  0  0  0
 23 50  1  0  0  0  0
 23 51  1  0  0  0  0
 24 25  1  0  0  0  0
 24 52  1  0  0  0  0
 24 53  1  0  0  0  0
 25 26  1  0  0  0  0
 25 54  1  0  0  0  0
 25 55  1  0  0  0  0
 26 56  1  0  0  0  0
 27 32  1  1  0  0  0
 27 28  1  0  0  0  0
 27 29  1  0  0  0  0
 28 57  1  0  0  0  0
 29 30  1  0  0  0  0
 29 58  1  0  0  0  0
 29 59  1  0  0  0  0
 30 60  1  0  0  0  0
 30 61  1  0  0  0  0
M  END
>  <s_m_source_file>
BACE_126.smi

>  <i_m_source_file_index>
1

>  <i_lp_mmshare_version>
42013

>  <i_f3d_flags>
0

>  <s_epik_input>
W0NIM11PW0NIMl1jKFtjSF1jMTIpW2NIXWMoW2NIXTEpQyg9TylbTkhdW0NASF0oW0NASF0oW09IXSlbQ0gyXVtOSDJdKVtDSDJdYzNbY0hdW2NIXVtjSF1jKFtjSF0zKU9bQ0gyXVtDSDJdW0NIMl1bQ0gyXVtOSF0y

>  <s_epik_cmdline>
J2VwaWtfcHl0aG9uJywgJy1waCcsICc3LjAnLCAnLXRuJywgJzgnLCAnLW1hJywgJzIwMCcsICctaW1hZScsICc8aW5maWxlLm1hZT4nLCAnLW9tYWUnLCAnPG91dGZpbGUubWFlPic=

>  <r_lp_tautomer_probability>
1

>  <r_epik_Ionization_Penalty>
2.3082

>  <r_epik_Ionization_Penalty_Charging>
0.0000

>  <r_epik_Ionization_Penalty_Neutral>
2.3082

>  <r_epik_State_Penalty>
2.4591

>  <r_epik_Charging_Adjusted_Penalty>
2.4591

>  <i_epik_Tot_Q>
0

>  <i_epik_Tot_abs_Q>
0

>  <s_lp_Force_Field>
OPLS_2005

>  <r_lp_Energy>
36.4283

>  <b_lp_Chiralities_Consistent>
1

>  <s_lp_Variant>
BACE_126.smi:1-2

>  <chiral flag>
1

>  <version>
0

>  <s_i_glide_gridfile>
second_dock_grid_2

>  <i_i_glide_lignum>
259

>  <i_i_glide_rotatable_bonds>
5

>  <r_i_docking_score>
-3.95037

>  <r_i_glide_ligand_efficiency>
-0.131679

>  <r_i_glide_ligand_efficiency_sa>
-0.409157

>  <r_i_glide_ligand_efficiency_ln>
-0.897566

>  <r_glide_XP_GScore>
-6.40947

>  <r_i_glide_gscore>
-6.40947

>  <r_i_glide_evdw>
-32.6998

>  <r_i_glide_ecoul>
-14.1422

>  <r_i_glide_energy>
-46.842

>  <r_i_glide_einternal>
11.2841

>  <r_i_glide_emodel>
-59.6507

>  <r_glide_XP_HBond>
-0.986993

>  <i_i_glide_confnum>
1

>  <i_i_glide_posenum>
3

>  <r_i_glide_eff_state_penalty>
2.4591

>  <i_glide_XP_PoseRank>
1

$$$$
