BACE_36.smi:1
 OpenBabel09291822493D
Structure written by MMmdl.
 90 92  0  0  1  0  0  0  0  0999 V2000
   22.5722   40.0205   -4.2416 C   0  0  0  0  0  0  0  0  0  0  0  0
   21.2542   40.1455   -5.0116 C   0  0  0  0  0  0  0  0  0  0  0  0
   20.9384   41.6132   -5.3198 C   0  0  0  0  0  0  0  0  0  0  0  0
   21.4021   39.3931   -6.2206 O   0  0  0  0  0  0  0  0  0  0  0  0
   20.2886   39.0267   -6.9594 C   0  0  0  0  0  0  0  0  0  0  0  0
   18.9749   39.0074   -6.4394 C   0  0  0  0  0  0  0  0  0  0  0  0
   17.8765   38.6591   -7.2413 C   0  0  0  0  0  0  0  0  0  0  0  0
   18.0509   38.3335   -8.5991 C   0  0  0  0  0  0  0  0  0  0  0  0
   19.3639   38.3016   -9.1165 C   0  0  0  0  0  0  0  0  0  0  0  0
   20.4756   38.6295   -8.3059 C   0  0  0  0  0  0  0  0  0  0  0  0
   21.8748   38.5454   -8.8948 C   0  0  0  0  0  0  0  0  0  0  0  0
   22.0600   39.3486  -10.1026 N   0  0  0  0  0  0  0  0  0  0  0  0
   21.8934   40.7968   -9.9546 C   0  0  0  0  0  0  0  0  0  0  0  0
   22.9107   41.4477   -8.9896 C   0  0  1  0  0  0  0  0  0  0  0  0
   24.1990   41.2879   -9.5548 O   0  0  0  0  0  0  0  0  0  0  0  0
   22.6423   42.9628   -8.7942 C   0  0  2  0  0  0  0  0  0  0  0  0
   23.6707   43.6386   -7.8477 C   0  0  0  0  0  0  0  0  0  0  0  0
   23.4453   45.1467   -7.5698 C   0  0  2  0  0  0  0  0  0  0  0  0
   23.5604   45.9817   -8.8605 C   0  0  0  0  0  0  0  0  0  0  0  0
   24.4252   45.6421   -6.4795 C   0  0  0  0  0  0  0  0  0  0  0  0
   24.1261   47.0471   -5.9219 C   0  0  0  0  0  0  0  0  0  0  0  0
   22.9085   47.0948   -4.9817 C   0  0  0  0  0  0  0  0  0  0  0  0
   22.4091   48.5216   -4.6826 C   0  0  0  0  0  0  0  0  0  0  0  0
   21.7957   49.2765   -5.8803 C   0  0  0  0  0  0  0  0  0  0  0  0
   20.6856   48.5245   -6.6332 C   0  0  0  0  0  0  0  0  0  0  0  0
   19.5918   48.2505   -5.7616 O   0  0  0  0  0  0  0  0  0  0  0  0
   18.5103   47.5623   -6.3898 C   0  0  0  0  0  0  0  0  0  0  0  0
   18.8582   46.0721   -6.6148 C   0  0  0  0  0  0  0  0  0  0  0  0
   19.2803   45.4539   -5.6400 O   0  0  0  0  0  0  0  0  0  0  0  0
   18.6801   45.4850   -7.8295 N   0  0  0  0  0  0  0  0  0  0  0  0
   18.2459   46.2683   -8.9972 C   0  0  0  0  0  0  0  0  0  0  0  0
   19.0162   44.0515   -8.0287 C   0  0  1  0  0  0  0  0  0  0  0  0
   17.8466   43.2804   -8.6752 C   0  0  0  0  0  0  0  0  0  0  0  0
   20.3079   43.8796   -8.8515 C   0  0  0  0  0  0  0  0  0  0  0  0
   20.4118   44.3679   -9.9762 O   0  0  0  0  0  0  0  0  0  0  0  0
   21.2897   43.1741   -8.2699 N   0  0  0  0  0  0  0  0  0  0  0  0
   16.8735   38.0228   -9.4804 C   0  0  0  0  0  0  0  0  0  0  0  0
   16.1611   39.1374  -10.2133 C   0  0  0  0  0  0  0  0  0  0  0  0
   15.4473   38.3920   -9.1150 C   0  0  0  0  0  0  0  0  0  0  0  0
   22.8881   40.9641   -8.0135 H   0  0  0  0  0  0  0  0  0  0  0  0
   22.7313   43.4253   -9.7788 H   0  0  0  0  0  0  0  0  0  0  0  0
   22.4348   45.2676   -7.1857 H   0  0  0  0  0  0  0  0  0  0  0  0
   19.1733   43.5558   -7.0682 H   0  0  0  0  0  0  0  0  0  0  0  0
   22.5259   40.5446   -3.2860 H   0  0  0  0  0  0  0  0  0  0  0  0
   23.3919   40.4456   -4.8196 H   0  0  0  0  0  0  0  0  0  0  0  0
   22.8171   38.9781   -4.0411 H   0  0  0  0  0  0  0  0  0  0  0  0
   20.4772   39.7502   -4.3638 H   0  0  0  0  0  0  0  0  0  0  0  0
   20.7434   42.1720   -4.4041 H   0  0  0  0  0  0  0  0  0  0  0  0
   20.0572   41.7042   -5.9511 H   0  0  0  0  0  0  0  0  0  0  0  0
   21.7728   42.0943   -5.8258 H   0  0  0  0  0  0  0  0  0  0  0  0
   18.7656   39.2739   -5.4165 H   0  0  0  0  0  0  0  0  0  0  0  0
   16.8944   38.6553   -6.7895 H   0  0  0  0  0  0  0  0  0  0  0  0
   19.5220   38.0274  -10.1491 H   0  0  0  0  0  0  0  0  0  0  0  0
   22.6346   38.7881   -8.1533 H   0  0  0  0  0  0  0  0  0  0  0  0
   22.0489   37.4984   -9.1437 H   0  0  0  0  0  0  0  0  0  0  0  0
   22.9869   39.1541  -10.4679 H   0  0  0  0  0  0  0  0  0  0  0  0
   21.9751   41.2704  -10.9338 H   0  0  0  0  0  0  0  0  0  0  0  0
   20.8787   41.0005   -9.6151 H   0  0  0  0  0  0  0  0  0  0  0  0
   24.3935   40.3625   -9.6199 H   0  0  0  0  0  0  0  0  0  0  0  0
   23.6630   43.0991   -6.8997 H   0  0  0  0  0  0  0  0  0  0  0  0
   24.6753   43.5049   -8.2489 H   0  0  0  0  0  0  0  0  0  0  0  0
   23.3460   47.0341   -8.6864 H   0  0  0  0  0  0  0  0  0  0  0  0
   22.8504   45.6574   -9.6194 H   0  0  0  0  0  0  0  0  0  0  0  0
   24.5583   45.9112   -9.2930 H   0  0  0  0  0  0  0  0  0  0  0  0
   24.4385   44.9381   -5.6457 H   0  0  0  0  0  0  0  0  0  0  0  0
   25.4357   45.6311   -6.8881 H   0  0  0  0  0  0  0  0  0  0  0  0
   24.0156   47.7558   -6.7387 H   0  0  0  0  0  0  0  0  0  0  0  0
   24.9980   47.3910   -5.3625 H   0  0  0  0  0  0  0  0  0  0  0  0
   22.0847   46.4969   -5.3669 H   0  0  0  0  0  0  0  0  0  0  0  0
   23.1888   46.6163   -4.0443 H   0  0  0  0  0  0  0  0  0  0  0  0
   23.2266   49.1105   -4.2675 H   0  0  0  0  0  0  0  0  0  0  0  0
   21.6605   48.4749   -3.8956 H   0  0  0  0  0  0  0  0  0  0  0  0
   21.3950   50.2260   -5.5233 H   0  0  0  0  0  0  0  0  0  0  0  0
   22.5825   49.5352   -6.5875 H   0  0  0  0  0  0  0  0  0  0  0  0
   21.0830   47.6111   -7.0767 H   0  0  0  0  0  0  0  0  0  0  0  0
   20.3364   49.1403   -7.4625 H   0  0  0  0  0  0  0  0  0  0  0  0
   18.1978   48.1054   -7.2807 H   0  0  0  0  0  0  0  0  0  0  0  0
   17.6623   47.5975   -5.7064 H   0  0  0  0  0  0  0  0  0  0  0  0
   18.2026   45.6852   -9.9145 H   0  0  0  0  0  0  0  0  0  0  0  0
   18.9404   47.0880   -9.1882 H   0  0  0  0  0  0  0  0  0  0  0  0
   17.2479   46.6788   -8.8356 H   0  0  0  0  0  0  0  0  0  0  0  0
   18.0531   42.2080   -8.6829 H   0  0  0  0  0  0  0  0  0  0  0  0
   17.6554   43.5737   -9.7065 H   0  0  0  0  0  0  0  0  0  0  0  0
   16.9265   43.4219   -8.1078 H   0  0  0  0  0  0  0  0  0  0  0  0
   21.0986   42.7815   -7.3577 H   0  0  0  0  0  0  0  0  0  0  0  0
   17.0241   37.0860  -10.0137 H   0  0  0  0  0  0  0  0  0  0  0  0
   15.7881   38.9597  -11.2167 H   0  0  0  0  0  0  0  0  0  0  0  0
   16.4625   40.1618  -10.0007 H   0  0  0  0  0  0  0  0  0  0  0  0
   15.2449   38.9523   -8.2030 H   0  0  0  0  0  0  0  0  0  0  0  0
   14.6483   37.7227   -9.4248 H   0  0  0  0  0  0  0  0  0  0  0  0
  1  2  1  0  0  0  0
  1 44  1  0  0  0  0
  1 45  1  0  0  0  0
  1 46  1  0  0  0  0
  2  3  1  0  0  0  0
  2  4  1  0  0  0  0
  2 47  1  0  0  0  0
  3 48  1  0  0  0  0
  3 49  1  0  0  0  0
  3 50  1  0  0  0  0
  4  5  1  0  0  0  0
  5 10  1  0  0  0  0
  5  6  2  0  0  0  0
  6  7  1  0  0  0  0
  6 51  1  0  0  0  0
  7  8  2  0  0  0  0
  7 52  1  0  0  0  0
  8  9  1  0  0  0  0
  8 37  1  0  0  0  0
  9 10  2  0  0  0  0
  9 53  1  0  0  0  0
 10 11  1  0  0  0  0
 11 12  1  0  0  0  0
 11 54  1  0  0  0  0
 11 55  1  0  0  0  0
 12 13  1  0  0  0  0
 12 56  1  0  0  0  0
 13 14  1  0  0  0  0
 13 57  1  0  0  0  0
 13 58  1  0  0  0  0
 14 40  1  1  0  0  0
 14 15  1  0  0  0  0
 14 16  1  0  0  0  0
 15 59  1  0  0  0  0
 16 41  1  6  0  0  0
 16 36  1  0  0  0  0
 16 17  1  0  0  0  0
 17 18  1  0  0  0  0
 17 60  1  0  0  0  0
 17 61  1  0  0  0  0
 18 42  1  1  0  0  0
 18 19  1  0  0  0  0
 18 20  1  0  0  0  0
 19 62  1  0  0  0  0
 19 63  1  0  0  0  0
 19 64  1  0  0  0  0
 20 21  1  0  0  0  0
 20 65  1  0  0  0  0
 20 66  1  0  0  0  0
 21 22  1  0  0  0  0
 21 67  1  0  0  0  0
 21 68  1  0  0  0  0
 22 23  1  0  0  0  0
 22 69  1  0  0  0  0
 22 70  1  0  0  0  0
 23 24  1  0  0  0  0
 23 71  1  0  0  0  0
 23 72  1  0  0  0  0
 24 25  1  0  0  0  0
 24 73  1  0  0  0  0
 24 74  1  0  0  0  0
 25 26  1  0  0  0  0
 25 75  1  0  0  0  0
 25 76  1  0  0  0  0
 26 27  1  0  0  0  0
 27 28  1  0  0  0  0
 27 77  1  0  0  0  0
 27 78  1  0  0  0  0
 28 29  2  0  0  0  0
 28 30  1  0  0  0  0
 30 31  1  0  0  0  0
 30 32  1  0  0  0  0
 31 79  1  0  0  0  0
 31 80  1  0  0  0  0
 31 81  1  0  0  0  0
 32 43  1  1  0  0  0
 32 33  1  0  0  0  0
 32 34  1  0  0  0  0
 33 82  1  0  0  0  0
 33 83  1  0  0  0  0
 33 84  1  0  0  0  0
 34 35  2  0  0  0  0
 34 36  1  0  0  0  0
 36 85  1  0  0  0  0
 37 39  1  0  0  0  0
 37 38  1  0  0  0  0
 37 86  1  0  0  0  0
 38 39  1  0  0  0  0
 38 87  1  0  0  0  0
 38 88  1  0  0  0  0
 39 89  1  0  0  0  0
 39 90  1  0  0  0  0
M  END
>  <s_m_source_file>
BACE_36.smi

>  <i_m_source_file_index>
1

>  <i_lp_mmshare_version>
42013

>  <i_f3d_flags>
0

>  <s_epik_input>
W0NIM11bQ0hdKFtDSDNdKU9jMVtjSF1bY0hdYyhbQ0hdMltDSDJdW0NIMl0yKVtjSF1jMVtDSDJdW05IXVtDSDJdW0NAQEhdKFtPSF0pW0NAQEhdM1tDSDJdW0NASF0oW0NIM10pW0NIMl1bQ0gyXVtDSDJdW0NIMl1bQ0gyXVtDSDJdT1tDSDJdQyg9TylOKFtDSDNdKVtDQEBIXShbQ0gzXSlDKD1PKVtOSF0z

>  <s_epik_cmdline>
J2VwaWtfcHl0aG9uJywgJy1waCcsICc3LjAnLCAnLXRuJywgJzgnLCAnLW1hJywgJzIwMCcsICctaW1hZScsICc8aW5maWxlLm1hZT4nLCAnLW9tYWUnLCAnPG91dGZpbGUubWFlPic=

>  <r_lp_tautomer_probability>
1

>  <r_epik_Ionization_Penalty>
2.1819

>  <r_epik_Ionization_Penalty_Charging>
0.0000

>  <r_epik_Ionization_Penalty_Neutral>
2.1819

>  <r_epik_State_Penalty>
2.3239

>  <r_epik_Charging_Adjusted_Penalty>
2.32395

>  <i_epik_Tot_Q>
0

>  <i_epik_Tot_abs_Q>
0

>  <s_lp_Force_Field>
OPLS_2005

>  <r_lp_Energy>
49.4433

>  <b_lp_Chiralities_Consistent>
1

>  <s_lp_Variant>
BACE_36.smi:1-2

>  <chiral flag>
1

>  <version>
0

>  <s_i_glide_gridfile>
second_dock_grid_2

>  <i_i_glide_lignum>
64

>  <i_i_glide_rotatable_bonds>
9

>  <r_i_docking_score>
-1.50689

>  <r_i_glide_ligand_efficiency>
-0.0386381

>  <r_i_glide_ligand_efficiency_sa>
-0.13103

>  <r_i_glide_ligand_efficiency_ln>
-0.323119

>  <r_glide_XP_GScore>
-3.83079

>  <r_i_glide_gscore>
-3.83079

>  <r_i_glide_evdw>
-40.4625

>  <r_i_glide_ecoul>
-6.64216

>  <r_i_glide_energy>
-47.1047

>  <r_i_glide_einternal>
7.07084

>  <r_i_glide_emodel>
-61.1525

>  <r_glide_XP_HBond>
-1.33

>  <i_i_glide_confnum>
1

>  <i_i_glide_posenum>
18

>  <r_i_glide_eff_state_penalty>
2.3239

>  <i_glide_XP_PoseRank>
1

$$$$
