BACE_44.smi:1
 OpenBabel09291822493D
Structure written by MMmdl.
 82 84  0  0  1  0  0  0  0  0999 V2000
   18.6615   47.4658   -6.8351 C   0  0  0  0  0  0  0  0  0  0  0  0
   18.4808   46.8168   -8.2160 C   0  0  0  0  0  0  0  0  0  0  0  0
   17.1855   47.2862   -8.8977 C   0  0  0  0  0  0  0  0  0  0  0  0
   18.5578   45.2974   -8.1346 C   0  0  0  0  0  0  0  0  0  0  0  0
   19.8132   44.6563   -8.0578 C   0  0  0  0  0  0  0  0  0  0  0  0
   19.8909   43.2521   -7.9860 C   0  0  0  0  0  0  0  0  0  0  0  0
   18.7145   42.4790   -7.9902 C   0  0  0  0  0  0  0  0  0  0  0  0
   17.4560   43.1097   -8.0622 C   0  0  0  0  0  0  0  0  0  0  0  0
   16.1888   42.2803   -8.0773 C   0  0  0  0  0  0  0  0  0  0  0  0
   16.3102   41.0920   -7.2417 N   0  0  0  0  0  0  0  0  0  0  0  0
   15.0787   40.3123   -7.1675 C   0  0  0  0  0  0  0  0  0  0  0  0
   14.7335   39.6855   -8.5317 C   0  0  1  0  0  0  0  0  0  0  0  0
   14.0595   40.6632   -9.3017 O   0  0  0  0  0  0  0  0  0  0  0  0
   15.9934   39.1995   -9.2972 C   0  0  2  0  0  0  0  0  0  0  0  0
   16.9356   38.3017   -8.4558 C   0  0  0  0  0  0  0  0  0  0  0  0
   18.0180   37.5519   -9.2775 C   0  0  2  0  0  0  0  0  0  0  0  0
   17.6742   36.0585   -9.3979 C   0  0  0  0  0  0  0  0  0  0  0  0
   19.4396   37.7473   -8.7013 C   0  0  0  0  0  0  0  0  0  0  0  0
   20.0094   39.1379   -9.0224 C   0  0  0  0  0  0  0  0  0  0  0  0
   21.3766   39.4338   -8.3945 C   0  0  0  0  0  0  0  0  0  0  0  0
   21.8666   40.8815   -8.6217 C   0  0  0  0  0  0  0  0  0  0  0  0
   22.5868   41.1489   -9.9617 C   0  0  0  0  0  0  0  0  0  0  0  0
   21.6988   41.5581  -11.1583 C   0  0  0  0  0  0  0  0  0  0  0  0
   21.0864   42.8846  -11.0183 N   0  0  0  0  0  0  0  0  0  0  0  0
   21.9441   44.0575  -11.1673 C   0  0  0  0  0  0  0  0  0  0  0  0
   19.7008   43.0444  -11.2661 C   0  0  0  0  0  0  0  0  0  0  0  0
   18.7847   42.0150  -10.9553 C   0  0  0  0  0  0  0  0  0  0  0  0
   17.4066   42.1863  -11.2053 C   0  0  0  0  0  0  0  0  0  0  0  0
   16.9855   43.4005  -11.7845 C   0  0  0  0  0  0  0  0  0  0  0  0
   17.9582   44.3848  -12.0547 C   0  0  0  0  0  0  0  0  0  0  0  0
   17.5695   45.7162  -12.6626 C   0  0  0  0  0  0  0  0  0  0  0  0
   19.2745   44.2166  -11.7987 N   0  0  0  0  0  0  0  0  0  0  0  0
   16.4265   41.0908  -10.8939 C   0  0  0  0  0  0  0  0  0  0  0  0
   15.3980   40.9462  -11.5546 O   0  0  0  0  0  0  0  0  0  0  0  0
   16.7438   40.3370   -9.8274 N   0  0  0  0  0  0  0  0  0  0  0  0
   17.3809   44.5160   -8.1350 C   0  0  0  0  0  0  0  0  0  0  0  0
   14.0602   38.8422   -8.3709 H   0  0  0  0  0  0  0  0  0  0  0  0
   15.6521   38.6124  -10.1518 H   0  0  0  0  0  0  0  0  0  0  0  0
   18.0264   37.9447  -10.2953 H   0  0  0  0  0  0  0  0  0  0  0  0
   19.6113   47.1735   -6.3864 H   0  0  0  0  0  0  0  0  0  0  0  0
   17.8656   47.1776   -6.1477 H   0  0  0  0  0  0  0  0  0  0  0  0
   18.6548   48.5535   -6.9097 H   0  0  0  0  0  0  0  0  0  0  0  0
   19.3089   47.1559   -8.8398 H   0  0  0  0  0  0  0  0  0  0  0  0
   17.0899   46.8559   -9.8949 H   0  0  0  0  0  0  0  0  0  0  0  0
   17.1715   48.3710   -9.0054 H   0  0  0  0  0  0  0  0  0  0  0  0
   16.3016   47.0022   -8.3258 H   0  0  0  0  0  0  0  0  0  0  0  0
   20.7236   45.2377   -8.0553 H   0  0  0  0  0  0  0  0  0  0  0  0
   20.8544   42.7673   -7.9292 H   0  0  0  0  0  0  0  0  0  0  0  0
   18.7805   41.4020   -7.9391 H   0  0  0  0  0  0  0  0  0  0  0  0
   15.3552   42.8969   -7.7383 H   0  0  0  0  0  0  0  0  0  0  0  0
   15.9684   41.9962   -9.1070 H   0  0  0  0  0  0  0  0  0  0  0  0
   16.5793   41.3696   -6.3030 H   0  0  0  0  0  0  0  0  0  0  0  0
   15.1578   39.5403   -6.4009 H   0  0  0  0  0  0  0  0  0  0  0  0
   14.2667   40.9712   -6.8577 H   0  0  0  0  0  0  0  0  0  0  0  0
   13.1789   40.7484   -8.9699 H   0  0  0  0  0  0  0  0  0  0  0  0
   17.4079   38.9126   -7.6855 H   0  0  0  0  0  0  0  0  0  0  0  0
   16.3457   37.5733   -7.8993 H   0  0  0  0  0  0  0  0  0  0  0  0
   17.6833   35.5683   -8.4238 H   0  0  0  0  0  0  0  0  0  0  0  0
   18.3886   35.5398  -10.0377 H   0  0  0  0  0  0  0  0  0  0  0  0
   16.6843   35.9185   -9.8333 H   0  0  0  0  0  0  0  0  0  0  0  0
   19.4321   37.5757   -7.6239 H   0  0  0  0  0  0  0  0  0  0  0  0
   20.1135   37.0001   -9.1221 H   0  0  0  0  0  0  0  0  0  0  0  0
   20.0885   39.2236  -10.1044 H   0  0  0  0  0  0  0  0  0  0  0  0
   19.3068   39.8969   -8.6810 H   0  0  0  0  0  0  0  0  0  0  0  0
   21.2934   39.2709   -7.3192 H   0  0  0  0  0  0  0  0  0  0  0  0
   22.1210   38.7194   -8.7472 H   0  0  0  0  0  0  0  0  0  0  0  0
   21.0591   41.5969   -8.4634 H   0  0  0  0  0  0  0  0  0  0  0  0
   22.5891   41.0911   -7.8320 H   0  0  0  0  0  0  0  0  0  0  0  0
   23.3307   41.9284   -9.7982 H   0  0  0  0  0  0  0  0  0  0  0  0
   23.1657   40.2668  -10.2366 H   0  0  0  0  0  0  0  0  0  0  0  0
   22.3344   41.6055  -12.0431 H   0  0  0  0  0  0  0  0  0  0  0  0
   20.9809   40.7762  -11.3898 H   0  0  0  0  0  0  0  0  0  0  0  0
   21.6062   44.8650  -10.5172 H   0  0  0  0  0  0  0  0  0  0  0  0
   21.9336   44.4141  -12.1979 H   0  0  0  0  0  0  0  0  0  0  0  0
   22.9775   43.8324  -10.9068 H   0  0  0  0  0  0  0  0  0  0  0  0
   19.1269   41.0985  -10.5191 H   0  0  0  0  0  0  0  0  0  0  0  0
   15.9431   43.5782  -12.0073 H   0  0  0  0  0  0  0  0  0  0  0  0
   16.4908   45.7869  -12.8057 H   0  0  0  0  0  0  0  0  0  0  0  0
   18.0508   45.8444  -13.6325 H   0  0  0  0  0  0  0  0  0  0  0  0
   17.8804   46.5351  -12.0132 H   0  0  0  0  0  0  0  0  0  0  0  0
   17.6021   40.5651   -9.3472 H   0  0  0  0  0  0  0  0  0  0  0  0
   16.4142   44.9941   -8.1942 H   0  0  0  0  0  0  0  0  0  0  0  0
  1  2  1  0  0  0  0
  1 40  1  0  0  0  0
  1 41  1  0  0  0  0
  1 42  1  0  0  0  0
  2  3  1  0  0  0  0
  2  4  1  0  0  0  0
  2 43  1  0  0  0  0
  3 44  1  0  0  0  0
  3 45  1  0  0  0  0
  3 46  1  0  0  0  0
  4 36  1  0  0  0  0
  4  5  2  0  0  0  0
  5  6  1  0  0  0  0
  5 47  1  0  0  0  0
  6  7  2  0  0  0  0
  6 48  1  0  0  0  0
  7  8  1  0  0  0  0
  7 49  1  0  0  0  0
  8  9  1  0  0  0  0
  8 36  2  0  0  0  0
  9 10  1  0  0  0  0
  9 50  1  0  0  0  0
  9 51  1  0  0  0  0
 10 11  1  0  0  0  0
 10 52  1  0  0  0  0
 11 12  1  0  0  0  0
 11 53  1  0  0  0  0
 11 54  1  0  0  0  0
 12 37  1  1  0  0  0
 12 13  1  0  0  0  0
 12 14  1  0  0  0  0
 13 55  1  0  0  0  0
 14 38  1  6  0  0  0
 14 35  1  0  0  0  0
 14 15  1  0  0  0  0
 15 16  1  0  0  0  0
 15 56  1  0  0  0  0
 15 57  1  0  0  0  0
 16 39  1  6  0  0  0
 16 17  1  0  0  0  0
 16 18  1  0  0  0  0
 17 58  1  0  0  0  0
 17 59  1  0  0  0  0
 17 60  1  0  0  0  0
 18 19  1  0  0  0  0
 18 61  1  0  0  0  0
 18 62  1  0  0  0  0
 19 20  1  0  0  0  0
 19 63  1  0  0  0  0
 19 64  1  0  0  0  0
 20 21  1  0  0  0  0
 20 65  1  0  0  0  0
 20 66  1  0  0  0  0
 21 22  1  0  0  0  0
 21 67  1  0  0  0  0
 21 68  1  0  0  0  0
 22 23  1  0  0  0  0
 22 69  1  0  0  0  0
 22 70  1  0  0  0  0
 23 24  1  0  0  0  0
 23 71  1  0  0  0  0
 23 72  1  0  0  0  0
 24 25  1  0  0  0  0
 24 26  1  0  0  0  0
 25 73  1  0  0  0  0
 25 74  1  0  0  0  0
 25 75  1  0  0  0  0
 26 32  1  0  0  0  0
 26 27  2  0  0  0  0
 27 28  1  0  0  0  0
 27 76  1  0  0  0  0
 28 29  2  0  0  0  0
 28 33  1  0  0  0  0
 29 30  1  0  0  0  0
 29 77  1  0  0  0  0
 30 31  1  0  0  0  0
 30 32  2  0  0  0  0
 31 78  1  0  0  0  0
 31 79  1  0  0  0  0
 31 80  1  0  0  0  0
 33 34  2  0  0  0  0
 33 35  1  0  0  0  0
 35 81  1  0  0  0  0
 36 82  1  0  0  0  0
M  END
>  <s_m_source_file>
BACE_44.smi

>  <i_m_source_file_index>
1

>  <i_lp_mmshare_version>
42013

>  <i_f3d_flags>
0

>  <s_epik_input>
W0NIM11bQ0hdKFtDSDNdKWMxW2NIXVtjSF1bY0hdYyhbY0hdMSlbQ0gyXVtOSF1bQ0gyXVtDQEBIXShbT0hdKVtDQEBIXShbTkhdQyg9TyljKFtjSF1jMjMpW2NIXWMobjMpW0NIM10pW0NIMl1bQ0BIXShbQ0gzXSlbQ0gyXVtDSDJdW0NIMl1bQ0gyXVtDSDJdW0NIMl1OMltDSDNd

>  <s_epik_cmdline>
J2VwaWtfcHl0aG9uJywgJy1waCcsICc3LjAnLCAnLXRuJywgJzgnLCAnLW1hJywgJzIwMCcsICctaW1hZScsICc8aW5maWxlLm1hZT4nLCAnLW9tYWUnLCAnPG91dGZpbGUubWFlPic=

>  <r_lp_tautomer_probability>
1

>  <r_epik_Ionization_Penalty>
2.1408

>  <r_epik_Ionization_Penalty_Charging>
0.0000

>  <r_epik_Ionization_Penalty_Neutral>
2.1408

>  <r_epik_State_Penalty>
2.3195

>  <r_epik_Charging_Adjusted_Penalty>
2.31951

>  <i_epik_Tot_Q>
0

>  <i_epik_Tot_abs_Q>
0

>  <s_lp_Force_Field>
OPLS_2005

>  <r_lp_Energy>
37.8599

>  <b_lp_Chiralities_Consistent>
1

>  <s_lp_Variant>
BACE_44.smi:1-3

>  <chiral flag>
1

>  <version>
0

>  <s_i_glide_gridfile>
second_dock_grid_2

>  <i_i_glide_lignum>
82

>  <i_i_glide_rotatable_bonds>
7

>  <r_i_docking_score>
-2.36647

>  <r_i_glide_ligand_efficiency>
-0.0657353

>  <r_i_glide_ligand_efficiency_sa>
-0.217053

>  <r_i_glide_ligand_efficiency_ln>
-0.5163

>  <r_glide_XP_GScore>
-4.68597

>  <r_i_glide_gscore>
-4.68597

>  <r_i_glide_evdw>
-28.5923

>  <r_i_glide_ecoul>
-14.8076

>  <r_i_glide_energy>
-43.3999

>  <r_i_glide_einternal>
9.58566

>  <r_i_glide_emodel>
-60.5628

>  <r_glide_XP_HBond>
-1.77303

>  <i_i_glide_confnum>
1

>  <i_i_glide_posenum>
3

>  <r_i_glide_eff_state_penalty>
2.3195

>  <i_glide_XP_PoseRank>
1

$$$$
