BACE_23.smi:1
 OpenBabel09291822493D
Structure written by MMmdl.
 91 93  0  0  1  0  0  0  0  0999 V2000
   22.9601   44.0408   -7.9462 C   0  0  0  0  0  0  0  0  0  0  0  0
   22.4420   43.8571   -6.5033 C   0  0  2  0  0  0  0  0  0  0  0  0
   23.5367   44.1943   -5.4591 C   0  0  0  0  0  0  0  0  0  0  0  0
   23.9680   45.6755   -5.4154 C   0  0  0  0  0  0  0  0  0  0  0  0
   22.9355   46.6051   -4.7567 C   0  0  0  0  0  0  0  0  0  0  0  0
   23.1539   48.1030   -5.0388 C   0  0  0  0  0  0  0  0  0  0  0  0
   22.9417   48.5385   -6.5059 C   0  0  0  0  0  0  0  0  0  0  0  0
   21.5862   48.1442   -7.1264 C   0  0  0  0  0  0  0  0  0  0  0  0
   20.3664   48.7670   -6.4182 C   0  0  0  0  0  0  0  0  0  0  0  0
   19.0131   48.3320   -7.0139 C   0  0  0  0  0  0  0  0  0  0  0  0
   18.7116   46.8349   -6.7853 C   0  0  0  0  0  0  0  0  0  0  0  0
   18.8605   46.4023   -5.6404 O   0  0  0  0  0  0  0  0  0  0  0  0
   18.2737   46.0496   -7.8029 N   0  0  0  0  0  0  0  0  0  0  0  0
   18.2813   46.5307   -9.1939 C   0  0  0  0  0  0  0  0  0  0  0  0
   17.9122   44.6322   -7.5429 C   0  0  1  0  0  0  0  0  0  0  0  0
   16.6087   44.2586   -8.2822 C   0  0  0  0  0  0  0  0  0  0  0  0
   19.0560   43.6912   -7.9631 C   0  0  0  0  0  0  0  0  0  0  0  0
   19.4772   43.6978   -9.1230 O   0  0  0  0  0  0  0  0  0  0  0  0
   19.5744   42.8922   -7.0118 N   0  0  0  0  0  0  0  0  0  0  0  0
   20.7224   41.9971   -7.1789 C   0  0  1  0  0  0  0  0  0  0  0  0
   21.9067   42.4202   -6.2713 C   0  0  0  0  0  0  0  0  0  0  0  0
   20.2665   40.5235   -7.0249 C   0  0  2  0  0  0  0  0  0  0  0  0
   20.2053   40.1540   -5.6653 O   0  0  0  0  0  0  0  0  0  0  0  0
   21.1632   39.4715   -7.7238 C   0  0  0  0  0  0  0  0  0  0  0  0
   21.4209   39.6893   -9.1751 N   0  3  0  0  0  0  0  0  0  0  0  0
   20.2712   39.8155  -10.1117 C   0  0  0  0  0  0  0  0  0  0  0  0
   20.2574   41.1098  -10.8973 C   0  0  0  0  0  0  0  0  0  0  0  0
   20.7236   39.8345  -11.5565 C   0  0  0  0  0  0  0  0  0  0  0  0
   19.0179   39.0830   -9.7280 C   0  0  0  0  0  0  0  0  0  0  0  0
   17.8451   39.7620   -9.3469 C   0  0  0  0  0  0  0  0  0  0  0  0
   16.7476   39.0260   -8.8503 C   0  0  0  0  0  0  0  0  0  0  0  0
   16.8637   37.6202   -8.8403 C   0  0  0  0  0  0  0  0  0  0  0  0
   18.0600   37.0326   -9.2804 C   0  0  0  0  0  0  0  0  0  0  0  0
   19.1261   37.7440   -9.7062 N   0  0  0  0  0  0  0  0  0  0  0  0
   15.5283   39.7613   -8.2832 C   0  0  0  0  0  0  0  0  0  0  0  0
   15.9696   40.5733   -7.0502 C   0  0  0  0  0  0  0  0  0  0  0  0
   14.9342   40.6915   -9.3592 C   0  0  0  0  0  0  0  0  0  0  0  0
   14.4238   38.7991   -7.8118 C   0  0  0  0  0  0  0  0  0  0  0  0
   21.6100   44.5459   -6.3578 H   0  0  0  0  0  0  0  0  0  0  0  0
   17.7007   44.4730   -6.4844 H   0  0  0  0  0  0  0  0  0  0  0  0
   21.0678   42.0835   -8.2065 H   0  0  0  0  0  0  0  0  0  0  0  0
   19.2523   40.4287   -7.3941 H   0  0  0  0  0  0  0  0  0  0  0  0
   23.3167   45.0526   -8.1288 H   0  0  0  0  0  0  0  0  0  0  0  0
   22.1792   43.8771   -8.6873 H   0  0  0  0  0  0  0  0  0  0  0  0
   23.7803   43.3551   -8.1655 H   0  0  0  0  0  0  0  0  0  0  0  0
   23.1997   43.9065   -4.4622 H   0  0  0  0  0  0  0  0  0  0  0  0
   24.4153   43.5771   -5.6591 H   0  0  0  0  0  0  0  0  0  0  0  0
   24.2235   46.0198   -6.4146 H   0  0  0  0  0  0  0  0  0  0  0  0
   24.8929   45.7525   -4.8406 H   0  0  0  0  0  0  0  0  0  0  0  0
   21.9204   46.3254   -5.0343 H   0  0  0  0  0  0  0  0  0  0  0  0
   23.0030   46.4484   -3.6836 H   0  0  0  0  0  0  0  0  0  0  0  0
   24.1633   48.3808   -4.7298 H   0  0  0  0  0  0  0  0  0  0  0  0
   22.4863   48.6787   -4.3960 H   0  0  0  0  0  0  0  0  0  0  0  0
   23.0636   49.6206   -6.5744 H   0  0  0  0  0  0  0  0  0  0  0  0
   23.7388   48.1228   -7.1234 H   0  0  0  0  0  0  0  0  0  0  0  0
   21.5015   47.0569   -7.1495 H   0  0  0  0  0  0  0  0  0  0  0  0
   21.5792   48.4573   -8.1715 H   0  0  0  0  0  0  0  0  0  0  0  0
   20.3813   48.5235   -5.3580 H   0  0  0  0  0  0  0  0  0  0  0  0
   20.4395   49.8534   -6.4696 H   0  0  0  0  0  0  0  0  0  0  0  0
   18.9728   48.6372   -8.0574 H   0  0  0  0  0  0  0  0  0  0  0  0
   18.2172   48.8929   -6.5206 H   0  0  0  0  0  0  0  0  0  0  0  0
   18.0636   45.7547   -9.9263 H   0  0  0  0  0  0  0  0  0  0  0  0
   19.2669   46.9127   -9.4631 H   0  0  0  0  0  0  0  0  0  0  0  0
   17.5425   47.3202   -9.3387 H   0  0  0  0  0  0  0  0  0  0  0  0
   16.2213   43.3092   -7.9200 H   0  0  0  0  0  0  0  0  0  0  0  0
   16.7386   44.1558   -9.3587 H   0  0  0  0  0  0  0  0  0  0  0  0
   15.8328   45.0027   -8.1028 H   0  0  0  0  0  0  0  0  0  0  0  0
   19.1306   42.8925   -6.1009 H   0  0  0  0  0  0  0  0  0  0  0  0
   21.5943   42.3362   -5.2275 H   0  0  0  0  0  0  0  0  0  0  0  0
   22.7268   41.7084   -6.3919 H   0  0  0  0  0  0  0  0  0  0  0  0
   19.4241   40.5504   -5.2899 H   0  0  0  0  0  0  0  0  0  0  0  0
   20.7325   38.4789   -7.5917 H   0  0  0  0  0  0  0  0  0  0  0  0
   22.1345   39.4335   -7.2316 H   0  0  0  0  0  0  0  0  0  0  0  0
   21.9605   38.8951   -9.4923 H   0  0  0  0  0  0  0  0  0  0  0  0
   19.2949   41.5054  -11.2146 H   0  0  0  0  0  0  0  0  0  0  0  0
   21.0199   41.8609  -10.6928 H   0  0  0  0  0  0  0  0  0  0  0  0
   21.7856   39.7616  -11.7806 H   0  0  0  0  0  0  0  0  0  0  0  0
   20.0613   39.3918  -12.2973 H   0  0  0  0  0  0  0  0  0  0  0  0
   17.8244   40.8429   -9.3521 H   0  0  0  0  0  0  0  0  0  0  0  0
   16.0822   36.9799   -8.4649 H   0  0  0  0  0  0  0  0  0  0  0  0
   18.1668   35.9595   -9.2748 H   0  0  0  0  0  0  0  0  0  0  0  0
   16.3090   39.9024   -6.2599 H   0  0  0  0  0  0  0  0  0  0  0  0
   15.1489   41.1644   -6.6425 H   0  0  0  0  0  0  0  0  0  0  0  0
   16.7872   41.2550   -7.2717 H   0  0  0  0  0  0  0  0  0  0  0  0
   14.6155   40.1231  -10.2335 H   0  0  0  0  0  0  0  0  0  0  0  0
   15.6423   41.4472   -9.6928 H   0  0  0  0  0  0  0  0  0  0  0  0
   14.0618   41.2225   -8.9830 H   0  0  0  0  0  0  0  0  0  0  0  0
   14.0455   38.1752   -8.6231 H   0  0  0  0  0  0  0  0  0  0  0  0
   13.5819   39.3491   -7.4039 H   0  0  0  0  0  0  0  0  0  0  0  0
   14.7720   38.1486   -7.0083 H   0  0  0  0  0  0  0  0  0  0  0  0
   21.9988   40.5099   -9.2779 H   0  0  0  0  0  0  0  0  0  0  0  0
  1  2  1  0  0  0  0
  1 43  1  0  0  0  0
  1 44  1  0  0  0  0
  1 45  1  0  0  0  0
  2 39  1  1  0  0  0
  2 21  1  0  0  0  0
  2  3  1  0  0  0  0
  3  4  1  0  0  0  0
  3 46  1  0  0  0  0
  3 47  1  0  0  0  0
  4  5  1  0  0  0  0
  4 48  1  0  0  0  0
  4 49  1  0  0  0  0
  5  6  1  0  0  0  0
  5 50  1  0  0  0  0
  5 51  1  0  0  0  0
  6  7  1  0  0  0  0
  6 52  1  0  0  0  0
  6 53  1  0  0  0  0
  7  8  1  0  0  0  0
  7 54  1  0  0  0  0
  7 55  1  0  0  0  0
  8  9  1  0  0  0  0
  8 56  1  0  0  0  0
  8 57  1  0  0  0  0
  9 10  1  0  0  0  0
  9 58  1  0  0  0  0
  9 59  1  0  0  0  0
 10 11  1  0  0  0  0
 10 60  1  0  0  0  0
 10 61  1  0  0  0  0
 11 12  2  0  0  0  0
 11 13  1  0  0  0  0
 13 14  1  0  0  0  0
 13 15  1  0  0  0  0
 14 62  1  0  0  0  0
 14 63  1  0  0  0  0
 14 64  1  0  0  0  0
 15 40  1  1  0  0  0
 15 16  1  0  0  0  0
 15 17  1  0  0  0  0
 16 65  1  0  0  0  0
 16 66  1  0  0  0  0
 16 67  1  0  0  0  0
 17 18  2  0  0  0  0
 17 19  1  0  0  0  0
 19 20  1  0  0  0  0
 19 68  1  0  0  0  0
 20 41  1  6  0  0  0
 20 21  1  0  0  0  0
 20 22  1  0  0  0  0
 21 69  1  0  0  0  0
 21 70  1  0  0  0  0
 22 42  1  6  0  0  0
 22 23  1  0  0  0  0
 22 24  1  0  0  0  0
 23 71  1  0  0  0  0
 24 25  1  0  0  0  0
 24 72  1  0  0  0  0
 24 73  1  0  0  0  0
 25 26  1  0  0  0  0
 25 74  1  0  0  0  0
 25 91  1  0  0  0  0
 26 28  1  0  0  0  0
 26 27  1  0  0  0  0
 26 29  1  0  0  0  0
 27 28  1  0  0  0  0
 27 75  1  0  0  0  0
 27 76  1  0  0  0  0
 28 77  1  0  0  0  0
 28 78  1  0  0  0  0
 29 34  1  0  0  0  0
 29 30  2  0  0  0  0
 30 31  1  0  0  0  0
 30 79  1  0  0  0  0
 31 32  2  0  0  0  0
 31 35  1  0  0  0  0
 32 33  1  0  0  0  0
 32 80  1  0  0  0  0
 33 34  2  0  0  0  0
 33 81  1  0  0  0  0
 35 36  1  0  0  0  0
 35 37  1  0  0  0  0
 35 38  1  0  0  0  0
 36 82  1  0  0  0  0
 36 83  1  0  0  0  0
 36 84  1  0  0  0  0
 37 85  1  0  0  0  0
 37 86  1  0  0  0  0
 37 87  1  0  0  0  0
 38 88  1  0  0  0  0
 38 89  1  0  0  0  0
 38 90  1  0  0  0  0
M  CHG  1  25   1
M  END
>  <s_m_source_file>
BACE_23.smi

>  <i_m_source_file_index>
1

>  <i_lp_mmshare_version>
42013

>  <i_f3d_flags>
0

>  <s_epik_input>
W0NIM11bQ0BASF0xW0NIMl1bQ0gyXVtDSDJdW0NIMl1bQ0gyXVtDSDJdW0NIMl1bQ0gyXUMoPU8pTihbQ0gzXSlbQ0BASF0oW0NIM10pQyg9TylbTkhdW0NAQEhdKFtDSDJdMSlbQ0BIXShbT0hdKVtDSDJdW05IXUMyKFtDSDJdW0NIMl0yKWMzW2NIXWMoW2NIXVtjSF1uMylDKFtDSDNdKShbQ0gzXSlbQ0gzXQ==

>  <s_epik_cmdline>
J2VwaWtfcHl0aG9uJywgJy1waCcsICc3LjAnLCAnLXRuJywgJzgnLCAnLW1hJywgJzIwMCcsICctaW1hZScsICc8aW5maWxlLm1hZT4nLCAnLW9tYWUnLCAnPG91dGZpbGUubWFlPic=

>  <r_epik_Ionization_Penalty>
0.7664

>  <r_epik_Ionization_Penalty_Charging>
0.7650

>  <r_epik_Ionization_Penalty_Neutral>
0.0014

>  <r_epik_State_Penalty>
1.7857

>  <r_epik_Charging_Adjusted_Penalty>
2.5507

>  <i_epik_Tot_Q>
1

>  <i_epik_Tot_abs_Q>
1

>  <s_lp_Force_Field>
OPLS_2005

>  <r_lp_Energy>
42.0277

>  <b_lp_Chiralities_Consistent>
1

>  <s_lp_Variant>
BACE_23.smi:1-3

>  <chiral flag>
1

>  <version>
0

>  <s_i_glide_gridfile>
second_dock_grid_2

>  <i_i_glide_lignum>
38

>  <i_i_glide_rotatable_bonds>
7

>  <r_i_docking_score>
-2.20733

>  <r_i_glide_ligand_efficiency>
-0.0580878

>  <r_i_glide_ligand_efficiency_sa>
-0.19529

>  <r_i_glide_ligand_efficiency_ln>
-0.475966

>  <r_glide_XP_GScore>
-3.99303

>  <r_i_glide_gscore>
-3.99303

>  <r_i_glide_evdw>
-38.5567

>  <r_i_glide_ecoul>
-12.7047

>  <r_i_glide_energy>
-51.2614

>  <r_i_glide_einternal>
5.35466

>  <r_i_glide_emodel>
-75.1182

>  <r_glide_XP_HBond>
-1.33

>  <i_i_glide_confnum>
1

>  <i_i_glide_posenum>
1

>  <r_i_glide_eff_state_penalty>
1.7857

>  <i_glide_XP_PoseRank>
1

$$$$
