BACE_90.smi:1
 OpenBabel09291822493D
Structure written by MMmdl.
 75 78  0  0  1  0  0  0  0  0999 V2000
   15.6729   42.5029   -8.0921 C   0  0  0  0  0  0  0  0  0  0  0  0
   15.7214   42.3852   -9.6332 C   0  0  1  0  0  0  0  0  0  0  0  0
   16.0726   40.9960  -10.1972 C   0  0  0  0  0  0  0  0  0  0  0  0
   15.5394   40.5705  -11.2254 O   0  0  0  0  0  0  0  0  0  0  0  0
   17.0665   40.3460   -9.5727 N   0  0  0  0  0  0  0  0  0  0  0  0
   17.5625   39.0208   -9.9266 C   0  0  1  0  0  0  0  0  0  0  0  0
   18.5903   39.0196  -11.0960 C   0  0  0  0  0  0  0  0  0  0  0  0
   19.6879   40.0749  -11.1123 C   0  0  0  0  0  0  0  0  0  0  0  0
   21.0359   39.6727  -11.0573 C   0  0  0  0  0  0  0  0  0  0  0  0
   22.0586   40.6265  -11.2115 C   0  0  0  0  0  0  0  0  0  0  0  0
   21.7393   41.9854  -11.3907 C   0  0  0  0  0  0  0  0  0  0  0  0
   20.3966   42.4104  -11.4338 C   0  0  0  0  0  0  0  0  0  0  0  0
   19.3763   41.4369  -11.3229 C   0  0  0  0  0  0  0  0  0  0  0  0
   20.1678   43.7546  -11.6382 O   0  0  0  0  0  0  0  0  0  0  0  0
   18.8957   44.2960  -11.3072 C   0  0  0  0  0  0  0  0  0  0  0  0
   18.8544   45.7436  -11.8167 C   0  0  0  0  0  0  0  0  0  0  0  0
   17.6559   46.5777  -11.3262 C   0  0  0  0  0  0  0  0  0  0  0  0
   16.2720   45.9507  -11.5906 C   0  0  0  0  0  0  0  0  0  0  0  0
   15.6593   45.3318  -10.3214 C   0  0  0  0  0  0  0  0  0  0  0  0
   14.5103   44.3563  -10.6367 C   0  0  0  0  0  0  0  0  0  0  0  0
   13.5334   44.8247  -11.2295 O   0  0  0  0  0  0  0  0  0  0  0  0
   14.5510   43.0552  -10.2471 N   0  0  0  0  0  0  0  0  0  0  0  0
   13.3147   42.2657  -10.3732 C   0  0  0  0  0  0  0  0  0  0  0  0
   17.9684   38.2247   -8.6561 C   0  0  2  0  0  0  0  0  0  0  0  0
   17.0147   38.4226   -7.6299 O   0  0  0  0  0  0  0  0  0  0  0  0
   19.3822   38.4417   -8.0773 C   0  0  0  0  0  0  0  0  0  0  0  0
   19.6325   39.7897   -7.5677 N   0  0  0  0  0  0  0  0  0  0  0  0
   20.9378   40.0049   -6.9075 C   0  0  0  0  0  0  0  0  0  0  0  0
   22.2151   39.8839   -7.7134 C   0  0  0  0  0  0  0  0  0  0  0  0
   21.8938   38.8491   -6.6796 C   0  0  0  0  0  0  0  0  0  0  0  0
   20.8312   41.0550   -5.8446 C   0  0  0  0  0  0  0  0  0  0  0  0
   20.9197   40.7090   -4.4771 C   0  0  0  0  0  0  0  0  0  0  0  0
   20.7676   41.6743   -3.4691 C   0  0  0  0  0  0  0  0  0  0  0  0
   20.4990   43.0046   -3.8276 C   0  0  0  0  0  0  0  0  0  0  0  0
   20.4217   43.3757   -5.1828 C   0  0  0  0  0  0  0  0  0  0  0  0
   20.0577   45.1842   -5.6441 Br  0  0  0  0  0  0  0  0  0  0  0  0
   20.5896   42.4028   -6.1896 C   0  0  0  0  0  0  0  0  0  0  0  0
   16.6202   42.9070   -9.9444 H   0  0  0  0  0  0  0  0  0  0  0  0
   16.7002   38.4649  -10.3048 H   0  0  0  0  0  0  0  0  0  0  0  0
   17.9119   37.1681   -8.9183 H   0  0  0  0  0  0  0  0  0  0  0  0
   14.8051   41.9903   -7.6823 H   0  0  0  0  0  0  0  0  0  0  0  0
   15.6145   43.5441   -7.7791 H   0  0  0  0  0  0  0  0  0  0  0  0
   16.5524   42.0797   -7.6097 H   0  0  0  0  0  0  0  0  0  0  0  0
   17.4506   40.7408   -8.7261 H   0  0  0  0  0  0  0  0  0  0  0  0
   19.0231   38.0254  -11.2143 H   0  0  0  0  0  0  0  0  0  0  0  0
   18.0595   39.2119  -12.0270 H   0  0  0  0  0  0  0  0  0  0  0  0
   21.2895   38.6277  -10.9155 H   0  0  0  0  0  0  0  0  0  0  0  0
   23.0942   40.3146  -11.1734 H   0  0  0  0  0  0  0  0  0  0  0  0
   22.5366   42.7050  -11.4929 H   0  0  0  0  0  0  0  0  0  0  0  0
   18.3423   41.7115  -11.4402 H   0  0  0  0  0  0  0  0  0  0  0  0
   18.0828   43.7463  -11.7794 H   0  0  0  0  0  0  0  0  0  0  0  0
   18.7586   44.2610  -10.2256 H   0  0  0  0  0  0  0  0  0  0  0  0
   18.8706   45.7357  -12.9071 H   0  0  0  0  0  0  0  0  0  0  0  0
   19.7691   46.2519  -11.5053 H   0  0  0  0  0  0  0  0  0  0  0  0
   17.6976   47.5451  -11.8314 H   0  0  0  0  0  0  0  0  0  0  0  0
   17.7698   46.8009  -10.2629 H   0  0  0  0  0  0  0  0  0  0  0  0
   16.3367   45.2241  -12.4010 H   0  0  0  0  0  0  0  0  0  0  0  0
   15.5933   46.7275  -11.9506 H   0  0  0  0  0  0  0  0  0  0  0  0
   16.4369   44.9038   -9.7007 H   0  0  0  0  0  0  0  0  0  0  0  0
   15.2617   46.1387   -9.7039 H   0  0  0  0  0  0  0  0  0  0  0  0
   12.4551   42.8023   -9.9676 H   0  0  0  0  0  0  0  0  0  0  0  0
   13.3637   41.3269   -9.8216 H   0  0  0  0  0  0  0  0  0  0  0  0
   13.1127   42.0350  -11.4184 H   0  0  0  0  0  0  0  0  0  0  0  0
   16.8495   37.6139   -7.1500 H   0  0  0  0  0  0  0  0  0  0  0  0
   20.1323   38.1722   -8.8234 H   0  0  0  0  0  0  0  0  0  0  0  0
   19.4888   37.7452   -7.2493 H   0  0  0  0  0  0  0  0  0  0  0  0
   18.8802   40.0666   -6.9399 H   0  0  0  0  0  0  0  0  0  0  0  0
   22.1931   39.5112   -8.7277 H   0  0  0  0  0  0  0  0  0  0  0  0
   23.0371   40.5576   -7.4879 H   0  0  0  0  0  0  0  0  0  0  0  0
   22.4529   38.8667   -5.7565 H   0  0  0  0  0  0  0  0  0  0  0  0
   21.6789   37.8592   -7.0653 H   0  0  0  0  0  0  0  0  0  0  0  0
   21.0980   39.6907   -4.1853 H   0  0  0  0  0  0  0  0  0  0  0  0
   20.8269   41.3923   -2.4265 H   0  0  0  0  0  0  0  0  0  0  0  0
   20.3504   43.7497   -3.0611 H   0  0  0  0  0  0  0  0  0  0  0  0
   20.5150   42.6809   -7.2291 H   0  0  0  0  0  0  0  0  0  0  0  0
  1  2  1  0  0  0  0
  1 41  1  0  0  0  0
  1 42  1  0  0  0  0
  1 43  1  0  0  0  0
  2 38  1  6  0  0  0
  2 22  1  0  0  0  0
  2  3  1  0  0  0  0
  3  4  2  0  0  0  0
  3  5  1  0  0  0  0
  5  6  1  0  0  0  0
  5 44  1  0  0  0  0
  6 39  1  6  0  0  0
  6  7  1  0  0  0  0
  6 24  1  0  0  0  0
  7  8  1  0  0  0  0
  7 45  1  0  0  0  0
  7 46  1  0  0  0  0
  8 13  1  0  0  0  0
  8  9  2  0  0  0  0
  9 10  1  0  0  0  0
  9 47  1  0  0  0  0
 10 11  2  0  0  0  0
 10 48  1  0  0  0  0
 11 12  1  0  0  0  0
 11 49  1  0  0  0  0
 12 13  2  0  0  0  0
 12 14  1  0  0  0  0
 13 50  1  0  0  0  0
 14 15  1  0  0  0  0
 15 16  1  0  0  0  0
 15 51  1  0  0  0  0
 15 52  1  0  0  0  0
 16 17  1  0  0  0  0
 16 53  1  0  0  0  0
 16 54  1  0  0  0  0
 17 18  1  0  0  0  0
 17 55  1  0  0  0  0
 17 56  1  0  0  0  0
 18 19  1  0  0  0  0
 18 57  1  0  0  0  0
 18 58  1  0  0  0  0
 19 20  1  0  0  0  0
 19 59  1  0  0  0  0
 19 60  1  0  0  0  0
 20 21  2  0  0  0  0
 20 22  1  0  0  0  0
 22 23  1  0  0  0  0
 23 61  1  0  0  0  0
 23 62  1  0  0  0  0
 23 63  1  0  0  0  0
 24 40  1  6  0  0  0
 24 25  1  0  0  0  0
 24 26  1  0  0  0  0
 25 64  1  0  0  0  0
 26 27  1  0  0  0  0
 26 65  1  0  0  0  0
 26 66  1  0  0  0  0
 27 28  1  0  0  0  0
 27 67  1  0  0  0  0
 28 30  1  0  0  0  0
 28 29  1  0  0  0  0
 28 31  1  0  0  0  0
 29 30  1  0  0  0  0
 29 68  1  0  0  0  0
 29 69  1  0  0  0  0
 30 70  1  0  0  0  0
 30 71  1  0  0  0  0
 31 37  1  0  0  0  0
 31 32  2  0  0  0  0
 32 33  1  0  0  0  0
 32 72  1  0  0  0  0
 33 34  2  0  0  0  0
 33 73  1  0  0  0  0
 34 35  1  0  0  0  0
 34 74  1  0  0  0  0
 35 36  1  0  0  0  0
 35 37  2  0  0  0  0
 37 75  1  0  0  0  0
M  END
>  <s_m_source_file>
BACE_90.smi

>  <i_m_source_file_index>
1

>  <i_lp_mmshare_version>
42013

>  <i_f3d_flags>
0

>  <s_epik_input>
QnJjKFtjSF0xKVtjSF1bY0hdW2NIXWMxQzIoW0NIMl1bQ0gyXTIpW05IXVtDSDJdW0NAQEhdKFtPSF0pW0NASF0oW0NIMl0zKVtOSF1DKD1PKVtDQEhdKFtDSDNdKU4oW0NIM10pQyg9TylbQ0gyXVtDSDJdW0NIMl1bQ0gyXVtDSDJdT2MoW2NIXTQpW2NIXVtjSF1bY0hdYzM0

>  <s_epik_cmdline>
J2VwaWtfcHl0aG9uJywgJy1waCcsICc3LjAnLCAnLXRuJywgJzgnLCAnLW1hJywgJzIwMCcsICctaW1hZScsICc8aW5maWxlLm1hZT4nLCAnLW9tYWUnLCAnPG91dGZpbGUubWFlPic=

>  <r_lp_tautomer_probability>
1

>  <r_epik_Ionization_Penalty>
0.2530

>  <r_epik_Ionization_Penalty_Charging>
0.0000

>  <r_epik_Ionization_Penalty_Neutral>
0.2530

>  <r_epik_State_Penalty>
0.2444

>  <r_epik_Charging_Adjusted_Penalty>
0.244368

>  <i_epik_Tot_Q>
0

>  <i_epik_Tot_abs_Q>
0

>  <s_lp_Force_Field>
OPLS_2005

>  <r_lp_Energy>
50.7786

>  <b_lp_Chiralities_Consistent>
1

>  <s_lp_Variant>
BACE_90.smi:1-1

>  <chiral flag>
1

>  <version>
0

>  <s_i_glide_gridfile>
second_dock_grid_2

>  <i_i_glide_lignum>
182

>  <i_i_glide_rotatable_bonds>
6

>  <r_i_docking_score>
-3.68314

>  <r_i_glide_ligand_efficiency>
-0.0995444

>  <r_i_glide_ligand_efficiency_sa>
-0.331704

>  <r_i_glide_ligand_efficiency_ln>
-0.798787

>  <r_glide_XP_GScore>
-3.92754

>  <r_i_glide_gscore>
-3.92754

>  <r_i_glide_evdw>
-39.0426

>  <r_i_glide_ecoul>
-9.97394

>  <r_i_glide_energy>
-49.0166

>  <r_i_glide_einternal>
15.0398

>  <r_i_glide_emodel>
-63.8454

>  <r_glide_XP_HBond>
-0.24333

>  <i_i_glide_confnum>
1

>  <i_i_glide_posenum>
7

>  <r_i_glide_eff_state_penalty>
0.2444

>  <i_glide_XP_PoseRank>
2

$$$$
