BACE_122.smi:1
 OpenBabel09291822493D
Structure written by MMmdl.
 81 84  0  0  1  0  0  0  0  0999 V2000
   25.7692   41.4125  -10.4044 C   0  0  0  0  0  0  0  0  0  0  0  0
   24.4697   42.1896  -10.1385 C   0  0  0  0  0  0  0  0  0  0  0  0
   24.1822   43.2120  -11.2487 C   0  0  0  0  0  0  0  0  0  0  0  0
   24.4707   42.8460   -8.7633 C   0  0  0  0  0  0  0  0  0  0  0  0
   23.4965   42.5015   -7.8003 C   0  0  0  0  0  0  0  0  0  0  0  0
   23.4850   43.1015   -6.5142 C   0  0  0  0  0  0  0  0  0  0  0  0
   24.5035   44.0371   -6.2095 C   0  0  0  0  0  0  0  0  0  0  0  0
   25.4762   44.3868   -7.1641 C   0  0  0  0  0  0  0  0  0  0  0  0
   25.4585   43.7973   -8.4397 C   0  0  0  0  0  0  0  0  0  0  0  0
   22.4360   42.7167   -5.4491 C   0  0  0  0  0  0  0  0  0  0  0  0
   21.4856   41.6741   -6.0774 C   0  0  0  0  0  0  0  0  0  0  0  0
   23.1180   42.0986   -4.2032 C   0  0  0  0  0  0  0  0  0  0  0  0
   21.6765   43.9115   -5.0214 N   0  0  0  0  0  0  0  0  0  0  0  0
   21.1690   44.8361   -6.0409 C   0  0  0  0  0  0  0  0  0  0  0  0
   19.6276   44.8717   -6.0288 C   0  0  1  0  0  0  0  0  0  0  0  0
   19.1905   46.1811   -5.7225 O   0  0  0  0  0  0  0  0  0  0  0  0
   18.9592   44.4157   -7.3538 C   0  0  2  0  0  0  0  0  0  0  0  0
   17.4237   44.5948   -7.2891 C   0  0  0  0  0  0  0  0  0  0  0  0
   16.6872   44.1475   -8.5439 C   0  0  0  0  0  0  0  0  0  0  0  0
   16.2808   42.8038   -8.6882 C   0  0  0  0  0  0  0  0  0  0  0  0
   15.6040   42.3708   -9.8570 C   0  0  0  0  0  0  0  0  0  0  0  0
   15.3099   43.3174  -10.8594 C   0  0  0  0  0  0  0  0  0  0  0  0
   15.7057   44.6614  -10.7172 C   0  0  0  0  0  0  0  0  0  0  0  0
   16.3991   45.0753   -9.5646 C   0  0  0  0  0  0  0  0  0  0  0  0
   15.2152   41.0663  -10.0817 O   0  0  0  0  0  0  0  0  0  0  0  0
   15.7834   40.0671   -9.2459 C   0  0  0  0  0  0  0  0  0  0  0  0
   15.5100   38.6709   -9.8207 C   0  0  0  0  0  0  0  0  0  0  0  0
   16.0560   37.5125   -8.9593 C   0  0  0  0  0  0  0  0  0  0  0  0
   17.5920   37.3866   -8.9321 C   0  0  0  0  0  0  0  0  0  0  0  0
   18.2084   38.3259   -8.0028 N   0  0  0  0  0  0  0  0  0  0  0  0
   19.3371   39.0191   -8.4554 C   0  0  0  0  0  0  0  0  0  0  0  0
   20.3739   38.3796   -9.1695 C   0  0  0  0  0  0  0  0  0  0  0  0
   21.4603   39.1565   -9.6129 C   0  0  0  0  0  0  0  0  0  0  0  0
   21.4669   40.5381   -9.3423 C   0  0  0  0  0  0  0  0  0  0  0  0
   20.3859   41.0995   -8.6238 C   0  0  0  0  0  0  0  0  0  0  0  0
   19.3553   40.3399   -8.1768 N   0  0  0  0  0  0  0  0  0  0  0  0
   20.3397   42.5837   -8.3650 C   0  0  0  0  0  0  0  0  0  0  0  0
   21.2246   43.3303   -8.7847 O   0  0  0  0  0  0  0  0  0  0  0  0
   19.2751   43.0216   -7.6710 N   0  0  0  0  0  0  0  0  0  0  0  0
   19.2588   44.2320   -5.2255 H   0  0  0  0  0  0  0  0  0  0  0  0
   19.3081   45.0535   -8.1688 H   0  0  0  0  0  0  0  0  0  0  0  0
   25.9374   40.6564   -9.6371 H   0  0  0  0  0  0  0  0  0  0  0  0
   26.6384   42.0704  -10.4210 H   0  0  0  0  0  0  0  0  0  0  0  0
   25.7274   40.9005  -11.3662 H   0  0  0  0  0  0  0  0  0  0  0  0
   23.6569   41.4623  -10.1566 H   0  0  0  0  0  0  0  0  0  0  0  0
   23.2304   43.7161  -11.0783 H   0  0  0  0  0  0  0  0  0  0  0  0
   24.1270   42.7262  -12.2233 H   0  0  0  0  0  0  0  0  0  0  0  0
   24.9582   43.9759  -11.3040 H   0  0  0  0  0  0  0  0  0  0  0  0
   22.7626   41.7576   -8.0698 H   0  0  0  0  0  0  0  0  0  0  0  0
   24.5632   44.4963   -5.2354 H   0  0  0  0  0  0  0  0  0  0  0  0
   26.2428   45.1050   -6.9135 H   0  0  0  0  0  0  0  0  0  0  0  0
   26.2128   44.0715   -9.1624 H   0  0  0  0  0  0  0  0  0  0  0  0
   22.0372   40.8103   -6.4507 H   0  0  0  0  0  0  0  0  0  0  0  0
   20.9338   42.0956   -6.9185 H   0  0  0  0  0  0  0  0  0  0  0  0
   20.7595   41.2900   -5.3607 H   0  0  0  0  0  0  0  0  0  0  0  0
   23.6614   41.1836   -4.4336 H   0  0  0  0  0  0  0  0  0  0  0  0
   22.3998   41.8204   -3.4331 H   0  0  0  0  0  0  0  0  0  0  0  0
   23.8249   42.7975   -3.7547 H   0  0  0  0  0  0  0  0  0  0  0  0
   20.9262   43.6402   -4.3933 H   0  0  0  0  0  0  0  0  0  0  0  0
   21.5567   45.8431   -5.8862 H   0  0  0  0  0  0  0  0  0  0  0  0
   21.5022   44.5194   -7.0275 H   0  0  0  0  0  0  0  0  0  0  0  0
   19.4775   46.7627   -6.4100 H   0  0  0  0  0  0  0  0  0  0  0  0
   17.0195   44.0418   -6.4402 H   0  0  0  0  0  0  0  0  0  0  0  0
   17.1828   45.6419   -7.1011 H   0  0  0  0  0  0  0  0  0  0  0  0
   16.5099   42.1153   -7.8892 H   0  0  0  0  0  0  0  0  0  0  0  0
   14.7883   43.0068  -11.7527 H   0  0  0  0  0  0  0  0  0  0  0  0
   15.4814   45.3747  -11.4964 H   0  0  0  0  0  0  0  0  0  0  0  0
   16.7039   46.1067   -9.4643 H   0  0  0  0  0  0  0  0  0  0  0  0
   16.8576   40.2276   -9.1998 H   0  0  0  0  0  0  0  0  0  0  0  0
   15.3777   40.1436   -8.2361 H   0  0  0  0  0  0  0  0  0  0  0  0
   14.4317   38.5466   -9.9256 H   0  0  0  0  0  0  0  0  0  0  0  0
   15.9205   38.6031  -10.8288 H   0  0  0  0  0  0  0  0  0  0  0  0
   15.6588   37.5712   -7.9449 H   0  0  0  0  0  0  0  0  0  0  0  0
   15.6592   36.5860   -9.3754 H   0  0  0  0  0  0  0  0  0  0  0  0
   17.8660   36.3830   -8.6063 H   0  0  0  0  0  0  0  0  0  0  0  0
   17.9843   37.5048   -9.9431 H   0  0  0  0  0  0  0  0  0  0  0  0
   17.5544   38.8831   -7.4725 H   0  0  0  0  0  0  0  0  0  0  0  0
   20.3448   37.3194   -9.3750 H   0  0  0  0  0  0  0  0  0  0  0  0
   22.2712   38.7018  -10.1624 H   0  0  0  0  0  0  0  0  0  0  0  0
   22.2863   41.1490   -9.6928 H   0  0  0  0  0  0  0  0  0  0  0  0
   18.6069   42.3264   -7.3706 H   0  0  0  0  0  0  0  0  0  0  0  0
  1  2  1  0  0  0  0
  1 42  1  0  0  0  0
  1 43  1  0  0  0  0
  1 44  1  0  0  0  0
  2  3  1  0  0  0  0
  2  4  1  0  0  0  0
  2 45  1  0  0  0  0
  3 46  1  0  0  0  0
  3 47  1  0  0  0  0
  3 48  1  0  0  0  0
  4  9  1  0  0  0  0
  4  5  2  0  0  0  0
  5  6  1  0  0  0  0
  5 49  1  0  0  0  0
  6  7  2  0  0  0  0
  6 10  1  0  0  0  0
  7  8  1  0  0  0  0
  7 50  1  0  0  0  0
  8  9  2  0  0  0  0
  8 51  1  0  0  0  0
  9 52  1  0  0  0  0
 10 11  1  0  0  0  0
 10 12  1  0  0  0  0
 10 13  1  0  0  0  0
 11 53  1  0  0  0  0
 11 54  1  0  0  0  0
 11 55  1  0  0  0  0
 12 56  1  0  0  0  0
 12 57  1  0  0  0  0
 12 58  1  0  0  0  0
 13 14  1  0  0  0  0
 13 59  1  0  0  0  0
 14 15  1  0  0  0  0
 14 60  1  0  0  0  0
 14 61  1  0  0  0  0
 15 40  1  1  0  0  0
 15 16  1  0  0  0  0
 15 17  1  0  0  0  0
 16 62  1  0  0  0  0
 17 41  1  6  0  0  0
 17 39  1  0  0  0  0
 17 18  1  0  0  0  0
 18 19  1  0  0  0  0
 18 63  1  0  0  0  0
 18 64  1  0  0  0  0
 19 24  1  0  0  0  0
 19 20  2  0  0  0  0
 20 21  1  0  0  0  0
 20 65  1  0  0  0  0
 21 22  2  0  0  0  0
 21 25  1  0  0  0  0
 22 23  1  0  0  0  0
 22 66  1  0  0  0  0
 23 24  2  0  0  0  0
 23 67  1  0  0  0  0
 24 68  1  0  0  0  0
 25 26  1  0  0  0  0
 26 27  1  0  0  0  0
 26 69  1  0  0  0  0
 26 70  1  0  0  0  0
 27 28  1  0  0  0  0
 27 71  1  0  0  0  0
 27 72  1  0  0  0  0
 28 29  1  0  0  0  0
 28 73  1  0  0  0  0
 28 74  1  0  0  0  0
 29 30  1  0  0  0  0
 29 75  1  0  0  0  0
 29 76  1  0  0  0  0
 30 31  1  0  0  0  0
 30 77  1  0  0  0  0
 31 36  1  0  0  0  0
 31 32  2  0  0  0  0
 32 33  1  0  0  0  0
 32 78  1  0  0  0  0
 33 34  2  0  0  0  0
 33 79  1  0  0  0  0
 34 35  1  0  0  0  0
 34 80  1  0  0  0  0
 35 36  2  0  0  0  0
 35 37  1  0  0  0  0
 37 38  2  0  0  0  0
 37 39  1  0  0  0  0
 39 81  1  0  0  0  0
M  END
>  <s_m_source_file>
BACE_122.smi

>  <i_m_source_file_index>
1

>  <i_lp_mmshare_version>
42013

>  <i_f3d_flags>
0

>  <s_epik_input>
W0NIM11bQ0hdKFtDSDNdKWMxW2NIXWMoW2NIXVtjSF1bY0hdMSlDKFtDSDNdKShbQ0gzXSlbTkhdW0NIMl1bQ0BASF0oW09IXSlbQ0BIXShbQ0gyXTIpW05IXUMoPU8pYyhuMylbY0hdW2NIXVtjSF1jM1tOSF1bQ0gyXVtDSDJdW0NIMl1bQ0gyXU9jKFtjSF1jMjQpW2NIXVtjSF1bY0hdNA==

>  <s_epik_cmdline>
J2VwaWtfcHl0aG9uJywgJy1waCcsICc3LjAnLCAnLXRuJywgJzgnLCAnLW1hJywgJzIwMCcsICctaW1hZScsICc8aW5maWxlLm1hZT4nLCAnLW9tYWUnLCAnPG91dGZpbGUubWFlPic=

>  <r_lp_tautomer_probability>
1

>  <r_epik_Ionization_Penalty>
2.0406

>  <r_epik_Ionization_Penalty_Charging>
0.0000

>  <r_epik_Ionization_Penalty_Neutral>
2.0406

>  <r_epik_State_Penalty>
2.1552

>  <r_epik_Charging_Adjusted_Penalty>
2.15519

>  <i_epik_Tot_Q>
0

>  <i_epik_Tot_abs_Q>
0

>  <s_lp_Force_Field>
OPLS_2005

>  <r_lp_Energy>
44.2653

>  <b_lp_Chiralities_Consistent>
1

>  <s_lp_Variant>
BACE_122.smi:1-2

>  <chiral flag>
1

>  <version>
0

>  <s_i_glide_gridfile>
second_dock_grid_2

>  <i_i_glide_lignum>
250

>  <i_i_glide_rotatable_bonds>
7

>  <r_i_docking_score>
-0.815754

>  <r_i_glide_ligand_efficiency>
-0.0209168

>  <r_i_glide_ligand_efficiency_sa>
-0.0709332

>  <r_i_glide_ligand_efficiency_ln>
-0.174921

>  <r_glide_XP_GScore>
-2.97095

>  <r_i_glide_gscore>
-2.97095

>  <r_i_glide_evdw>
-39.548

>  <r_i_glide_ecoul>
-5.78733

>  <r_i_glide_energy>
-45.3353

>  <r_i_glide_einternal>
3.03101

>  <r_i_glide_emodel>
-65.4773

>  <r_glide_XP_HBond>
-0.7

>  <i_i_glide_confnum>
1

>  <i_i_glide_posenum>
2

>  <r_i_glide_eff_state_penalty>
2.1552

>  <i_glide_XP_PoseRank>
1

$$$$
