BACE_140.smi:1
 OpenBabel09291822493D
Structure written by MMmdl.
 84 88  0  0  1  0  0  0  0  0999 V2000
   13.0780   48.2639  -14.2754 C   0  0  0  0  0  0  0  0  0  0  0  0
   13.9352   47.8296  -13.2327 O   0  0  0  0  0  0  0  0  0  0  0  0
   15.2851   48.2238  -13.4249 C   0  0  0  0  0  0  0  0  0  0  0  0
   16.2175   47.5253  -12.4511 C   0  0  0  0  0  0  0  0  0  0  0  0
   17.2700   48.2357  -11.8360 C   0  0  0  0  0  0  0  0  0  0  0  0
   18.1390   47.5920  -10.9324 C   0  0  0  0  0  0  0  0  0  0  0  0
   17.9621   46.2128  -10.6727 C   0  0  0  0  0  0  0  0  0  0  0  0
   16.9178   45.4814  -11.2879 C   0  0  0  0  0  0  0  0  0  0  0  0
   16.0497   46.1507  -12.1800 C   0  0  0  0  0  0  0  0  0  0  0  0
   16.7749   43.9987  -11.0646 C   0  0  0  0  0  0  0  0  0  0  0  0
   16.4176   43.2592  -11.9831 O   0  0  0  0  0  0  0  0  0  0  0  0
   17.0359   43.5667   -9.8149 N   0  0  0  0  0  0  0  0  0  0  0  0
   17.0913   42.1707   -9.3553 C   0  0  1  0  0  0  0  0  0  0  0  0
   18.1626   41.9753   -8.2403 C   0  0  0  0  0  0  0  0  0  0  0  0
   19.4937   42.6627   -8.5222 C   0  0  0  0  0  0  0  0  0  0  0  0
   19.7371   43.9589   -8.0206 C   0  0  0  0  0  0  0  0  0  0  0  0
   20.9088   44.6599   -8.3673 C   0  0  0  0  0  0  0  0  0  0  0  0
   21.8922   44.0158   -9.1549 C   0  0  0  0  0  0  0  0  0  0  0  0
   21.6797   42.6999   -9.6127 C   0  0  0  0  0  0  0  0  0  0  0  0
   20.4789   42.0284   -9.3085 C   0  0  0  0  0  0  0  0  0  0  0  0
   21.0232   45.9571   -7.9251 O   0  0  0  0  0  0  0  0  0  0  0  0
   21.5470   46.9095   -8.8461 C   0  0  0  0  0  0  0  0  0  0  0  0
   20.8479   48.2597   -8.6108 C   0  0  0  0  0  0  0  0  0  0  0  0
   19.3499   48.2701   -8.9762 C   0  0  0  0  0  0  0  0  0  0  0  0
   19.1759   48.3202  -10.3921 O   0  0  0  0  0  0  0  0  0  0  0  0
   15.6702   41.6449   -8.9986 C   0  0  2  0  0  0  0  0  0  0  0  0
   14.6800   42.5017   -9.5385 O   0  0  0  0  0  0  0  0  0  0  0  0
   15.4281   41.5227   -7.4789 C   0  0  0  0  0  0  0  0  0  0  0  0
   15.7591   40.1654   -6.9873 N   0  3  0  0  0  0  0  0  0  0  0  0
   16.1003   39.1732   -8.0183 C   0  0  0  0  0  0  0  0  0  0  0  0
   15.3092   37.8872   -8.0403 C   0  0  0  0  0  0  0  0  0  0  0  0
   15.0901   38.9268   -9.1133 C   0  0  0  0  0  0  0  0  0  0  0  0
   17.5744   39.1003   -8.3899 C   0  0  0  0  0  0  0  0  0  0  0  0
   18.0243   39.5162   -9.6638 C   0  0  0  0  0  0  0  0  0  0  0  0
   19.3933   39.4461  -10.0134 C   0  0  0  0  0  0  0  0  0  0  0  0
   20.3187   38.9516   -9.0684 C   0  0  0  0  0  0  0  0  0  0  0  0
   19.8815   38.5353   -7.7971 C   0  0  0  0  0  0  0  0  0  0  0  0
   18.5167   38.6094   -7.4605 C   0  0  0  0  0  0  0  0  0  0  0  0
   19.8782   39.8956  -11.3907 C   0  0  0  0  0  0  0  0  0  0  0  0
   18.9384   40.9375  -12.0231 C   0  0  0  0  0  0  0  0  0  0  0  0
   21.3374   40.3839  -11.3592 C   0  0  0  0  0  0  0  0  0  0  0  0
   17.4467   41.5888  -10.2078 H   0  0  0  0  0  0  0  0  0  0  0  0
   15.5338   40.6574   -9.4417 H   0  0  0  0  0  0  0  0  0  0  0  0
   12.0601   47.9311  -14.0725 H   0  0  0  0  0  0  0  0  0  0  0  0
   13.3796   47.8480  -15.2377 H   0  0  0  0  0  0  0  0  0  0  0  0
   13.0643   49.3520  -14.3523 H   0  0  0  0  0  0  0  0  0  0  0  0
   15.3735   49.3056  -13.3123 H   0  0  0  0  0  0  0  0  0  0  0  0
   15.6045   47.9808  -14.4398 H   0  0  0  0  0  0  0  0  0  0  0  0
   17.4165   49.2842  -12.0523 H   0  0  0  0  0  0  0  0  0  0  0  0
   18.6612   45.7083  -10.0257 H   0  0  0  0  0  0  0  0  0  0  0  0
   15.2523   45.6105  -12.6706 H   0  0  0  0  0  0  0  0  0  0  0  0
   17.2890   44.2656   -9.1311 H   0  0  0  0  0  0  0  0  0  0  0  0
   18.3507   40.9127   -8.0825 H   0  0  0  0  0  0  0  0  0  0  0  0
   17.7964   42.3536   -7.2854 H   0  0  0  0  0  0  0  0  0  0  0  0
   18.9883   44.4528   -7.4180 H   0  0  0  0  0  0  0  0  0  0  0  0
   22.8112   44.5204   -9.4145 H   0  0  0  0  0  0  0  0  0  0  0  0
   22.4313   42.2119  -10.2157 H   0  0  0  0  0  0  0  0  0  0  0  0
   20.3135   41.0317   -9.6912 H   0  0  0  0  0  0  0  0  0  0  0  0
   22.6195   47.0114   -8.6758 H   0  0  0  0  0  0  0  0  0  0  0  0
   21.4092   46.6081   -9.8862 H   0  0  0  0  0  0  0  0  0  0  0  0
   21.3591   49.0394   -9.1766 H   0  0  0  0  0  0  0  0  0  0  0  0
   20.9604   48.5302   -7.5602 H   0  0  0  0  0  0  0  0  0  0  0  0
   18.8271   47.4472   -8.4888 H   0  0  0  0  0  0  0  0  0  0  0  0
   18.8995   49.1784   -8.5744 H   0  0  0  0  0  0  0  0  0  0  0  0
   13.8355   42.0931   -9.4248 H   0  0  0  0  0  0  0  0  0  0  0  0
   14.3941   41.7674   -7.2347 H   0  0  0  0  0  0  0  0  0  0  0  0
   16.0598   42.2367   -6.9490 H   0  0  0  0  0  0  0  0  0  0  0  0
   14.9585   39.8179   -6.4790 H   0  0  0  0  0  0  0  0  0  0  0  0
   15.8360   36.9752   -8.3211 H   0  0  0  0  0  0  0  0  0  0  0  0
   14.5274   37.7626   -7.2910 H   0  0  0  0  0  0  0  0  0  0  0  0
   14.1619   39.4973   -9.0814 H   0  0  0  0  0  0  0  0  0  0  0  0
   15.4704   38.7099  -10.1115 H   0  0  0  0  0  0  0  0  0  0  0  0
   17.3072   39.8942  -10.3778 H   0  0  0  0  0  0  0  0  0  0  0  0
   21.3698   38.8875   -9.3097 H   0  0  0  0  0  0  0  0  0  0  0  0
   20.5943   38.1582   -7.0785 H   0  0  0  0  0  0  0  0  0  0  0  0
   18.1950   38.2867   -6.4809 H   0  0  0  0  0  0  0  0  0  0  0  0
   19.8581   39.0234  -12.0455 H   0  0  0  0  0  0  0  0  0  0  0  0
   17.9202   40.5538  -12.0965 H   0  0  0  0  0  0  0  0  0  0  0  0
   19.2613   41.1941  -13.0325 H   0  0  0  0  0  0  0  0  0  0  0  0
   18.9046   41.8622  -11.4465 H   0  0  0  0  0  0  0  0  0  0  0  0
   22.0008   39.6122  -10.9673 H   0  0  0  0  0  0  0  0  0  0  0  0
   21.4586   41.2729  -10.7398 H   0  0  0  0  0  0  0  0  0  0  0  0
   21.6880   40.6341  -12.3610 H   0  0  0  0  0  0  0  0  0  0  0  0
   16.5355   40.2388   -6.3456 H   0  0  0  0  0  0  0  0  0  0  0  0
  1  2  1  0  0  0  0
  1 44  1  0  0  0  0
  1 45  1  0  0  0  0
  1 46  1  0  0  0  0
  2  3  1  0  0  0  0
  3  4  1  0  0  0  0
  3 47  1  0  0  0  0
  3 48  1  0  0  0  0
  4  9  1  0  0  0  0
  4  5  2  0  0  0  0
  5  6  1  0  0  0  0
  5 49  1  0  0  0  0
  6 25  1  0  0  0  0
  6  7  2  0  0  0  0
  7  8  1  0  0  0  0
  7 50  1  0  0  0  0
  8  9  2  0  0  0  0
  8 10  1  0  0  0  0
  9 51  1  0  0  0  0
 10 11  2  0  0  0  0
 10 12  1  0  0  0  0
 12 13  1  0  0  0  0
 12 52  1  0  0  0  0
 13 42  1  6  0  0  0
 13 14  1  0  0  0  0
 13 26  1  0  0  0  0
 14 15  1  0  0  0  0
 14 53  1  0  0  0  0
 14 54  1  0  0  0  0
 15 20  1  0  0  0  0
 15 16  2  0  0  0  0
 16 17  1  0  0  0  0
 16 55  1  0  0  0  0
 17 18  2  0  0  0  0
 17 21  1  0  0  0  0
 18 19  1  0  0  0  0
 18 56  1  0  0  0  0
 19 20  2  0  0  0  0
 19 57  1  0  0  0  0
 20 58  1  0  0  0  0
 21 22  1  0  0  0  0
 22 23  1  0  0  0  0
 22 59  1  0  0  0  0
 22 60  1  0  0  0  0
 23 24  1  0  0  0  0
 23 61  1  0  0  0  0
 23 62  1  0  0  0  0
 24 25  1  0  0  0  0
 24 63  1  0  0  0  0
 24 64  1  0  0  0  0
 26 43  1  6  0  0  0
 26 27  1  0  0  0  0
 26 28  1  0  0  0  0
 27 65  1  0  0  0  0
 28 29  1  0  0  0  0
 28 66  1  0  0  0  0
 28 67  1  0  0  0  0
 29 30  1  0  0  0  0
 29 68  1  0  0  0  0
 29 84  1  0  0  0  0
 30 32  1  0  0  0  0
 30 31  1  0  0  0  0
 30 33  1  0  0  0  0
 31 32  1  0  0  0  0
 31 69  1  0  0  0  0
 31 70  1  0  0  0  0
 32 71  1  0  0  0  0
 32 72  1  0  0  0  0
 33 38  1  0  0  0  0
 33 34  2  0  0  0  0
 34 35  1  0  0  0  0
 34 73  1  0  0  0  0
 35 36  2  0  0  0  0
 35 39  1  0  0  0  0
 36 37  1  0  0  0  0
 36 74  1  0  0  0  0
 37 38  2  0  0  0  0
 37 75  1  0  0  0  0
 38 76  1  0  0  0  0
 39 40  1  0  0  0  0
 39 41  1  0  0  0  0
 39 77  1  0  0  0  0
 40 78  1  0  0  0  0
 40 79  1  0  0  0  0
 40 80  1  0  0  0  0
 41 81  1  0  0  0  0
 41 82  1  0  0  0  0
 41 83  1  0  0  0  0
M  CHG  1  29   1
M  END
>  <s_m_source_file>
BACE_140.smi

>  <i_m_source_file_index>
1

>  <i_lp_mmshare_version>
42013

>  <i_f3d_flags>
0

>  <s_epik_input>
TzFbQ0gyXVtDSDJdW0NIMl1PYyhbY0hdW2NIXVtjSF0yKVtjSF1jMltDSDJdW0NASF0oW05IXUMoPU8pYyhbY0hdMylbY0hdYyhbY0hdYzEzKVtDSDJdT1tDSDNdKVtDQEhdKFtPSF0pW0NIMl1bTkhdQzQoW0NIMl1bQ0gyXTQpYzVbY0hdYyhbQ0hdKFtDSDNdKVtDSDNdKVtjSF1bY0hdW2NIXTU=

>  <s_epik_cmdline>
J2VwaWtfcHl0aG9uJywgJy1waCcsICc3LjAnLCAnLXRuJywgJzgnLCAnLW1hJywgJzIwMCcsICctaW1hZScsICc8aW5maWxlLm1hZT4nLCAnLW9tYWUnLCAnPG91dGZpbGUubWFlPic=

>  <r_lp_tautomer_probability>
1

>  <r_epik_Ionization_Penalty>
0.5137

>  <r_epik_Ionization_Penalty_Charging>
0.5137

>  <r_epik_Ionization_Penalty_Neutral>
0.0000

>  <r_epik_State_Penalty>
0.5212

>  <r_epik_Charging_Adjusted_Penalty>
1.03485

>  <i_epik_Tot_Q>
1

>  <i_epik_Tot_abs_Q>
1

>  <s_lp_Force_Field>
OPLS_2005

>  <r_lp_Energy>
44.4551

>  <b_lp_Chiralities_Consistent>
1

>  <s_lp_Variant>
BACE_140.smi:1-2

>  <chiral flag>
1

>  <version>
0

>  <s_i_glide_gridfile>
second_dock_grid_2

>  <i_i_glide_lignum>
288

>  <i_i_glide_rotatable_bonds>
9

>  <r_i_docking_score>
-5.14932

>  <r_i_glide_ligand_efficiency>
-0.125593

>  <r_i_glide_ligand_efficiency_sa>
-0.433072

>  <r_i_glide_ligand_efficiency_ln>
-1.09245

>  <r_glide_XP_GScore>
-5.67052

>  <r_i_glide_gscore>
-5.67052

>  <r_i_glide_evdw>
-34.8063

>  <r_i_glide_ecoul>
-18.8046

>  <r_i_glide_energy>
-53.6109

>  <r_i_glide_einternal>
6.14665

>  <r_i_glide_emodel>
-78.6569

>  <r_glide_XP_HBond>
-1.27803

>  <i_i_glide_confnum>
1

>  <i_i_glide_posenum>
11

>  <r_i_glide_eff_state_penalty>
0.5212

>  <i_glide_XP_PoseRank>
1

$$$$
