BACE_87.smi:1
 OpenBabel09291822493D
Structure written by MMmdl.
 80 83  0  0  1  0  0  0  0  0999 V2000
   19.6214   43.6610   -9.2368 C   0  0  0  0  0  0  0  0  0  0  0  0
   18.8407   43.7432   -7.9070 C   0  0  1  0  0  0  0  0  0  0  0  0
   19.7274   43.9805   -6.6663 C   0  0  0  0  0  0  0  0  0  0  0  0
   19.4871   44.8824   -5.8604 O   0  0  0  0  0  0  0  0  0  0  0  0
   20.7596   43.1339   -6.5005 N   0  0  0  0  0  0  0  0  0  0  0  0
   21.5551   42.9826   -5.2763 C   0  0  1  0  0  0  0  0  0  0  0  0
   22.0542   41.5231   -5.0691 C   0  0  0  0  0  0  0  0  0  0  0  0
   21.6501   40.5247   -6.1463 C   0  0  0  0  0  0  0  0  0  0  0  0
   20.3695   39.9377   -6.1156 C   0  0  0  0  0  0  0  0  0  0  0  0
   19.9516   39.0671   -7.1397 C   0  0  0  0  0  0  0  0  0  0  0  0
   18.5214   38.5666   -7.1417 C   0  0  0  0  0  0  0  0  0  0  0  0
   17.6063   39.6055   -7.8019 C   0  0  0  0  0  0  0  0  0  0  0  0
   16.1175   39.3924   -7.5099 C   0  0  0  0  0  0  0  0  0  0  0  0
   15.2059   40.4051   -8.2284 C   0  0  0  0  0  0  0  0  0  0  0  0
   15.4332   41.8801   -7.8225 C   0  0  0  0  0  0  0  0  0  0  0  0
   16.1792   42.7200   -8.8791 C   0  0  0  0  0  0  0  0  0  0  0  0
   16.4126   44.1800   -8.4361 C   0  0  0  0  0  0  0  0  0  0  0  0
   15.4417   44.9459   -8.4720 O   0  0  0  0  0  0  0  0  0  0  0  0
   17.6490   44.6144   -8.0663 N   0  0  0  0  0  0  0  0  0  0  0  0
   17.8474   46.0649   -7.9010 C   0  0  0  0  0  0  0  0  0  0  0  0
   20.8407   38.7355   -8.1828 C   0  0  0  0  0  0  0  0  0  0  0  0
   22.1347   39.2913   -8.2049 C   0  0  0  0  0  0  0  0  0  0  0  0
   22.5309   40.1971   -7.2004 C   0  0  0  0  0  0  0  0  0  0  0  0
   22.7031   44.0226   -5.1432 C   0  0  2  0  0  0  0  0  0  0  0  0
   22.1798   45.3369   -5.2068 O   0  0  0  0  0  0  0  0  0  0  0  0
   23.8574   43.9664   -6.1605 C   0  0  0  0  0  0  0  0  0  0  0  0
   24.9318   44.8396   -5.6394 N   0  3  0  0  0  0  0  0  0  0  0  0
   26.2004   44.9365   -6.3834 C   0  0  0  0  0  0  0  0  0  0  0  0
   27.3146   45.3610   -5.4313 C   0  0  0  0  0  0  0  0  0  0  0  0
   27.1956   46.4920   -4.5937 C   0  0  0  0  0  0  0  0  0  0  0  0
   28.2244   46.7793   -3.6729 C   0  0  0  0  0  0  0  0  0  0  0  0
   29.3482   45.9270   -3.6471 C   0  0  0  0  0  0  0  0  0  0  0  0
   29.4871   44.8573   -4.4583 N   0  0  0  0  0  0  0  0  0  0  0  0
   28.4949   44.6013   -5.3326 C   0  0  0  0  0  0  0  0  0  0  0  0
   28.1247   47.9329   -2.7242 C   0  0  0  0  0  0  0  0  0  0  0  0
   27.8875   49.3389   -3.2180 C   0  0  0  0  0  0  0  0  0  0  0  0
   29.2242   48.9608   -2.6339 C   0  0  0  0  0  0  0  0  0  0  0  0
   18.4778   42.7431   -7.6868 H   0  0  0  0  0  0  0  0  0  0  0  0
   20.8656   43.1671   -4.4454 H   0  0  0  0  0  0  0  0  0  0  0  0
   23.1161   43.9059   -4.1368 H   0  0  0  0  0  0  0  0  0  0  0  0
   18.9707   43.3793  -10.0625 H   0  0  0  0  0  0  0  0  0  0  0  0
   20.4269   42.9257   -9.2025 H   0  0  0  0  0  0  0  0  0  0  0  0
   20.0713   44.6204   -9.4883 H   0  0  0  0  0  0  0  0  0  0  0  0
   20.8650   42.3990   -7.1878 H   0  0  0  0  0  0  0  0  0  0  0  0
   23.1410   41.4941   -4.9536 H   0  0  0  0  0  0  0  0  0  0  0  0
   21.6719   41.1513   -4.1154 H   0  0  0  0  0  0  0  0  0  0  0  0
   19.6672   40.1864   -5.3314 H   0  0  0  0  0  0  0  0  0  0  0  0
   18.4476   37.6036   -7.6517 H   0  0  0  0  0  0  0  0  0  0  0  0
   18.2106   38.3969   -6.1093 H   0  0  0  0  0  0  0  0  0  0  0  0
   17.8771   40.5882   -7.4241 H   0  0  0  0  0  0  0  0  0  0  0  0
   17.7878   39.6262   -8.8760 H   0  0  0  0  0  0  0  0  0  0  0  0
   15.8335   38.3804   -7.8019 H   0  0  0  0  0  0  0  0  0  0  0  0
   15.9507   39.4445   -6.4316 H   0  0  0  0  0  0  0  0  0  0  0  0
   15.2907   40.2881   -9.3107 H   0  0  0  0  0  0  0  0  0  0  0  0
   14.1753   40.1329   -7.9911 H   0  0  0  0  0  0  0  0  0  0  0  0
   14.4588   42.3395   -7.6465 H   0  0  0  0  0  0  0  0  0  0  0  0
   15.9588   41.9197   -6.8657 H   0  0  0  0  0  0  0  0  0  0  0  0
   17.0918   42.2191   -9.1929 H   0  0  0  0  0  0  0  0  0  0  0  0
   15.5663   42.7559   -9.7814 H   0  0  0  0  0  0  0  0  0  0  0  0
   17.2957   46.6464   -8.6431 H   0  0  0  0  0  0  0  0  0  0  0  0
   18.8971   46.3420   -8.0265 H   0  0  0  0  0  0  0  0  0  0  0  0
   17.5269   46.3851   -6.9084 H   0  0  0  0  0  0  0  0  0  0  0  0
   20.5235   38.0727   -8.9756 H   0  0  0  0  0  0  0  0  0  0  0  0
   22.8183   39.0380   -9.0022 H   0  0  0  0  0  0  0  0  0  0  0  0
   23.5113   40.6392   -7.2540 H   0  0  0  0  0  0  0  0  0  0  0  0
   21.3264   45.2859   -5.6281 H   0  0  0  0  0  0  0  0  0  0  0  0
   23.5230   44.3342   -7.1288 H   0  0  0  0  0  0  0  0  0  0  0  0
   24.2274   42.9531   -6.3055 H   0  0  0  0  0  0  0  0  0  0  0  0
   25.1537   44.5214   -4.6985 H   0  0  0  0  0  0  0  0  0  0  0  0
   26.1112   45.6466   -7.2064 H   0  0  0  0  0  0  0  0  0  0  0  0
   26.4425   43.9573   -6.8068 H   0  0  0  0  0  0  0  0  0  0  0  0
   26.3108   47.1122   -4.6274 H   0  0  0  0  0  0  0  0  0  0  0  0
   30.1571   46.1033   -2.9531 H   0  0  0  0  0  0  0  0  0  0  0  0
   28.6447   43.7625   -5.9877 H   0  0  0  0  0  0  0  0  0  0  0  0
   27.6545   47.6342   -1.7924 H   0  0  0  0  0  0  0  0  0  0  0  0
   27.2630   50.0010   -2.6212 H   0  0  0  0  0  0  0  0  0  0  0  0
   27.8469   49.5047   -4.2932 H   0  0  0  0  0  0  0  0  0  0  0  0
   30.0629   48.8832   -3.3263 H   0  0  0  0  0  0  0  0  0  0  0  0
   29.4687   49.3552   -1.6498 H   0  0  0  0  0  0  0  0  0  0  0  0
   24.5324   45.7654   -5.5403 H   0  0  0  0  0  0  0  0  0  0  0  0
  1  2  1  0  0  0  0
  1 41  1  0  0  0  0
  1 42  1  0  0  0  0
  1 43  1  0  0  0  0
  2 38  1  1  0  0  0
  2 19  1  0  0  0  0
  2  3  1  0  0  0  0
  3  4  2  0  0  0  0
  3  5  1  0  0  0  0
  5  6  1  0  0  0  0
  5 44  1  0  0  0  0
  6 39  1  1  0  0  0
  6  7  1  0  0  0  0
  6 24  1  0  0  0  0
  7  8  1  0  0  0  0
  7 45  1  0  0  0  0
  7 46  1  0  0  0  0
  8 23  1  0  0  0  0
  8  9  2  0  0  0  0
  9 10  1  0  0  0  0
  9 47  1  0  0  0  0
 10 11  1  0  0  0  0
 10 21  2  0  0  0  0
 11 12  1  0  0  0  0
 11 48  1  0  0  0  0
 11 49  1  0  0  0  0
 12 13  1  0  0  0  0
 12 50  1  0  0  0  0
 12 51  1  0  0  0  0
 13 14  1  0  0  0  0
 13 52  1  0  0  0  0
 13 53  1  0  0  0  0
 14 15  1  0  0  0  0
 14 54  1  0  0  0  0
 14 55  1  0  0  0  0
 15 16  1  0  0  0  0
 15 56  1  0  0  0  0
 15 57  1  0  0  0  0
 16 17  1  0  0  0  0
 16 58  1  0  0  0  0
 16 59  1  0  0  0  0
 17 18  2  0  0  0  0
 17 19  1  0  0  0  0
 19 20  1  0  0  0  0
 20 60  1  0  0  0  0
 20 61  1  0  0  0  0
 20 62  1  0  0  0  0
 21 22  1  0  0  0  0
 21 63  1  0  0  0  0
 22 23  2  0  0  0  0
 22 64  1  0  0  0  0
 23 65  1  0  0  0  0
 24 40  1  1  0  0  0
 24 25  1  0  0  0  0
 24 26  1  0  0  0  0
 25 66  1  0  0  0  0
 26 27  1  0  0  0  0
 26 67  1  0  0  0  0
 26 68  1  0  0  0  0
 27 28  1  0  0  0  0
 27 69  1  0  0  0  0
 27 80  1  0  0  0  0
 28 29  1  0  0  0  0
 28 70  1  0  0  0  0
 28 71  1  0  0  0  0
 29 34  1  0  0  0  0
 29 30  2  0  0  0  0
 30 31  1  0  0  0  0
 30 72  1  0  0  0  0
 31 32  2  0  0  0  0
 31 35  1  0  0  0  0
 32 33  1  0  0  0  0
 32 73  1  0  0  0  0
 33 34  2  0  0  0  0
 34 74  1  0  0  0  0
 35 37  1  0  0  0  0
 35 36  1  0  0  0  0
 35 75  1  0  0  0  0
 36 37  1  0  0  0  0
 36 76  1  0  0  0  0
 36 77  1  0  0  0  0
 37 78  1  0  0  0  0
 37 79  1  0  0  0  0
M  CHG  1  27   1
M  END
>  <s_m_source_file>
BACE_87.smi

>  <i_m_source_file_index>
1

>  <i_lp_mmshare_version>
42013

>  <i_f3d_flags>
0

>  <s_epik_input>
W2NIXTFbY0hdW2NIXWMoW2NIXWMxMilbQ0gyXVtDSDJdW0NIMl1bQ0gyXVtDSDJdW0NIMl1DKD1PKU4oW0NIM10pW0NAQEhdKFtDSDNdKUMoPU8pW05IXVtDQEBIXShbQ0gyXTIpW0NASF0oW09IXSlbQ0gyXVtOSF1bQ0gyXWMzW2NIXWMoW2NIXW5bY0hdMylbQ0hdNFtDSDJdW0NIMl00

>  <s_epik_cmdline>
J2VwaWtfcHl0aG9uJywgJy1waCcsICc3LjAnLCAnLXRuJywgJzgnLCAnLW1hJywgJzIwMCcsICctaW1hZScsICc8aW5maWxlLm1hZT4nLCAnLW9tYWUnLCAnPG91dGZpbGUubWFlPic=

>  <r_epik_Ionization_Penalty>
0.0520

>  <r_epik_Ionization_Penalty_Charging>
0.0463

>  <r_epik_Ionization_Penalty_Neutral>
0.0057

>  <r_epik_State_Penalty>
0.0403

>  <r_epik_Charging_Adjusted_Penalty>
0.0866055

>  <i_epik_Tot_Q>
1

>  <i_epik_Tot_abs_Q>
1

>  <s_lp_Force_Field>
OPLS_2005

>  <r_lp_Energy>
33.6577

>  <b_lp_Chiralities_Consistent>
1

>  <s_lp_Variant>
BACE_87.smi:1-1

>  <chiral flag>
1

>  <version>
0

>  <s_i_glide_gridfile>
second_dock_grid_2

>  <i_i_glide_lignum>
176

>  <i_i_glide_rotatable_bonds>
7

>  <r_i_docking_score>
-2.51825

>  <r_i_glide_ligand_efficiency>
-0.0680609

>  <r_i_glide_ligand_efficiency_sa>
-0.226794

>  <r_i_glide_ligand_efficiency_ln>
-0.54615

>  <r_glide_XP_GScore>
-2.55855

>  <r_i_glide_gscore>
-2.55855

>  <r_i_glide_evdw>
-39.832

>  <r_i_glide_ecoul>
-12.9562

>  <r_i_glide_energy>
-52.7882

>  <r_i_glide_einternal>
1.60947

>  <r_i_glide_emodel>
-66.7198

>  <r_glide_XP_HBond>
-1.43981

>  <i_i_glide_confnum>
1

>  <i_i_glide_posenum>
2

>  <r_i_glide_eff_state_penalty>
0.0403

>  <i_glide_XP_PoseRank>
1

$$$$
