BACE_86.smi:1
 OpenBabel09291822493D
Structure written by MMmdl.
 88 90  0  0  1  0  0  0  0  0999 V2000
   22.7721   39.3509   -8.4401 C   0  0  0  0  0  0  0  0  0  0  0  0
   21.4648   39.6309   -7.6682 C   0  0  0  0  0  0  0  0  0  0  0  0
   21.5546   38.9499   -6.3000 C   0  0  0  0  0  0  0  0  0  0  0  0
   20.1850   39.2367   -8.4135 C   0  0  0  0  0  0  0  0  0  0  0  0
   18.9372   39.2771   -7.7428 C   0  0  0  0  0  0  0  0  0  0  0  0
   17.7494   38.8905   -8.3963 C   0  0  0  0  0  0  0  0  0  0  0  0
   16.4263   38.8829   -7.6475 C   0  0  0  0  0  0  0  0  0  0  0  0
   16.0665   40.1837   -7.0739 N   0  0  0  0  0  0  0  0  0  0  0  0
   15.1161   41.0029   -7.8287 C   0  0  0  0  0  0  0  0  0  0  0  0
   15.5811   41.4080   -9.2549 C   0  0  1  0  0  0  0  0  0  0  0  0
   14.5606   40.9535  -10.1301 O   0  0  0  0  0  0  0  0  0  0  0  0
   15.7702   42.9376   -9.4930 C   0  0  2  0  0  0  0  0  0  0  0  0
   16.1076   43.2945  -10.9764 C   0  0  0  0  0  0  0  0  0  0  0  0
   17.5844   43.2909  -11.4596 C   0  0  2  0  0  0  0  0  0  0  0  0
   17.6200   43.7451  -12.9328 C   0  0  0  0  0  0  0  0  0  0  0  0
   18.3002   41.9323  -11.2668 C   0  0  0  0  0  0  0  0  0  0  0  0
   19.6824   41.7879  -11.9408 C   0  0  0  0  0  0  0  0  0  0  0  0
   20.7667   42.7777  -11.4730 C   0  0  0  0  0  0  0  0  0  0  0  0
   21.2060   42.5861  -10.0154 C   0  0  0  0  0  0  0  0  0  0  0  0
   22.4318   43.4438   -9.6531 C   0  0  0  0  0  0  0  0  0  0  0  0
   23.0147   43.1796   -8.2469 C   0  0  0  0  0  0  0  0  0  0  0  0
   22.0625   43.4808   -7.0743 C   0  0  0  0  0  0  0  0  0  0  0  0
   21.7551   44.9810   -6.8925 C   0  0  0  0  0  0  0  0  0  0  0  0
   20.3066   45.3318   -6.4791 C   0  0  1  0  0  0  0  0  0  0  0  0
   20.0243   44.6959   -5.2441 O   0  0  0  0  0  0  0  0  0  0  0  0
   20.2175   46.8595   -6.2541 C   0  0  0  0  0  0  0  0  0  0  0  0
   18.7861   47.3493   -6.0001 C   0  0  0  0  0  0  0  0  0  0  0  0
   17.8579   46.9149   -7.1393 C   0  0  0  0  0  0  0  0  0  0  0  0
   17.8401   45.3770   -7.2914 C   0  0  2  0  0  0  0  0  0  0  0  0
   19.2743   44.8693   -7.5517 C   0  0  0  0  0  0  0  0  0  0  0  0
   16.8236   44.8931   -8.3481 C   0  0  0  0  0  0  0  0  0  0  0  0
   16.1317   45.7140   -8.9535 O   0  0  0  0  0  0  0  0  0  0  0  0
   16.7021   43.5640   -8.5448 N   0  0  0  0  0  0  0  0  0  0  0  0
   17.7970   38.4899   -9.7450 C   0  0  0  0  0  0  0  0  0  0  0  0
   19.0241   38.4787  -10.4325 C   0  0  0  0  0  0  0  0  0  0  0  0
   20.2110   38.8359   -9.7684 C   0  0  0  0  0  0  0  0  0  0  0  0
   16.4905   40.8875   -9.5310 H   0  0  0  0  0  0  0  0  0  0  0  0
   14.7939   43.3814   -9.2860 H   0  0  0  0  0  0  0  0  0  0  0  0
   18.1261   44.0377  -10.8800 H   0  0  0  0  0  0  0  0  0  0  0  0
   17.5106   44.9490   -6.3520 H   0  0  0  0  0  0  0  0  0  0  0  0
   22.8449   39.9181   -9.3652 H   0  0  0  0  0  0  0  0  0  0  0  0
   22.8574   38.2961   -8.7002 H   0  0  0  0  0  0  0  0  0  0  0  0
   23.6481   39.6132   -7.8463 H   0  0  0  0  0  0  0  0  0  0  0  0
   21.4017   40.7001   -7.4975 H   0  0  0  0  0  0  0  0  0  0  0  0
   20.7222   39.2012   -5.6441 H   0  0  0  0  0  0  0  0  0  0  0  0
   22.4603   39.2366   -5.7677 H   0  0  0  0  0  0  0  0  0  0  0  0
   21.5714   37.8693   -6.4401 H   0  0  0  0  0  0  0  0  0  0  0  0
   18.8780   39.5942   -6.7123 H   0  0  0  0  0  0  0  0  0  0  0  0
   15.6235   38.4993   -8.2788 H   0  0  0  0  0  0  0  0  0  0  0  0
   16.5376   38.1550   -6.8423 H   0  0  0  0  0  0  0  0  0  0  0  0
   16.8940   40.7128   -6.8127 H   0  0  0  0  0  0  0  0  0  0  0  0
   14.1819   40.4421   -7.8832 H   0  0  0  0  0  0  0  0  0  0  0  0
   14.8719   41.8932   -7.2485 H   0  0  0  0  0  0  0  0  0  0  0  0
   13.7375   40.9503   -9.6577 H   0  0  0  0  0  0  0  0  0  0  0  0
   15.5196   42.6654  -11.6403 H   0  0  0  0  0  0  0  0  0  0  0  0
   15.7193   44.2983  -11.1512 H   0  0  0  0  0  0  0  0  0  0  0  0
   17.2616   42.9571  -13.5962 H   0  0  0  0  0  0  0  0  0  0  0  0
   18.6316   44.0098  -13.2407 H   0  0  0  0  0  0  0  0  0  0  0  0
   17.0055   44.6314  -13.0938 H   0  0  0  0  0  0  0  0  0  0  0  0
   18.4204   41.7362  -10.2029 H   0  0  0  0  0  0  0  0  0  0  0  0
   17.6593   41.1372  -11.6497 H   0  0  0  0  0  0  0  0  0  0  0  0
   20.0496   40.7759  -11.7777 H   0  0  0  0  0  0  0  0  0  0  0  0
   19.5684   41.8602  -13.0219 H   0  0  0  0  0  0  0  0  0  0  0  0
   21.6442   42.6368  -12.1048 H   0  0  0  0  0  0  0  0  0  0  0  0
   20.4420   43.8057  -11.6303 H   0  0  0  0  0  0  0  0  0  0  0  0
   20.3736   42.8121   -9.3546 H   0  0  0  0  0  0  0  0  0  0  0  0
   21.4433   41.5371   -9.8612 H   0  0  0  0  0  0  0  0  0  0  0  0
   23.2205   43.2445  -10.3788 H   0  0  0  0  0  0  0  0  0  0  0  0
   22.1850   44.4972   -9.7739 H   0  0  0  0  0  0  0  0  0  0  0  0
   23.3293   42.1377   -8.1878 H   0  0  0  0  0  0  0  0  0  0  0  0
   23.9265   43.7632   -8.1225 H   0  0  0  0  0  0  0  0  0  0  0  0
   21.1521   42.9019   -7.1910 H   0  0  0  0  0  0  0  0  0  0  0  0
   22.5058   43.1059   -6.1500 H   0  0  0  0  0  0  0  0  0  0  0  0
   22.4596   45.3877   -6.1655 H   0  0  0  0  0  0  0  0  0  0  0  0
   21.9769   45.5169   -7.8137 H   0  0  0  0  0  0  0  0  0  0  0  0
   20.7073   44.8999   -4.6197 H   0  0  0  0  0  0  0  0  0  0  0  0
   20.8619   47.1612   -5.4275 H   0  0  0  0  0  0  0  0  0  0  0  0
   20.6016   47.3746   -7.1366 H   0  0  0  0  0  0  0  0  0  0  0  0
   18.4178   46.9550   -5.0550 H   0  0  0  0  0  0  0  0  0  0  0  0
   18.7777   48.4361   -5.9065 H   0  0  0  0  0  0  0  0  0  0  0  0
   16.8599   47.2990   -6.9429 H   0  0  0  0  0  0  0  0  0  0  0  0
   18.1828   47.3783   -8.0739 H   0  0  0  0  0  0  0  0  0  0  0  0
   19.5991   45.2109   -8.5350 H   0  0  0  0  0  0  0  0  0  0  0  0
   19.2479   43.7825   -7.5994 H   0  0  0  0  0  0  0  0  0  0  0  0
   17.2647   42.9455   -7.9776 H   0  0  0  0  0  0  0  0  0  0  0  0
   16.8923   38.2001  -10.2583 H   0  0  0  0  0  0  0  0  0  0  0  0
   19.0602   38.1900  -11.4688 H   0  0  0  0  0  0  0  0  0  0  0  0
   21.1330   38.7993  -10.3293 H   0  0  0  0  0  0  0  0  0  0  0  0
  1  2  1  0  0  0  0
  1 41  1  0  0  0  0
  1 42  1  0  0  0  0
  1 43  1  0  0  0  0
  2  3  1  0  0  0  0
  2  4  1  0  0  0  0
  2 44  1  0  0  0  0
  3 45  1  0  0  0  0
  3 46  1  0  0  0  0
  3 47  1  0  0  0  0
  4 36  1  0  0  0  0
  4  5  2  0  0  0  0
  5  6  1  0  0  0  0
  5 48  1  0  0  0  0
  6  7  1  0  0  0  0
  6 34  2  0  0  0  0
  7  8  1  0  0  0  0
  7 49  1  0  0  0  0
  7 50  1  0  0  0  0
  8  9  1  0  0  0  0
  8 51  1  0  0  0  0
  9 10  1  0  0  0  0
  9 52  1  0  0  0  0
  9 53  1  0  0  0  0
 10 37  1  6  0  0  0
 10 11  1  0  0  0  0
 10 12  1  0  0  0  0
 11 54  1  0  0  0  0
 12 38  1  1  0  0  0
 12 33  1  0  0  0  0
 12 13  1  0  0  0  0
 13 14  1  0  0  0  0
 13 55  1  0  0  0  0
 13 56  1  0  0  0  0
 14 39  1  1  0  0  0
 14 15  1  0  0  0  0
 14 16  1  0  0  0  0
 15 57  1  0  0  0  0
 15 58  1  0  0  0  0
 15 59  1  0  0  0  0
 16 17  1  0  0  0  0
 16 60  1  0  0  0  0
 16 61  1  0  0  0  0
 17 18  1  0  0  0  0
 17 62  1  0  0  0  0
 17 63  1  0  0  0  0
 18 19  1  0  0  0  0
 18 64  1  0  0  0  0
 18 65  1  0  0  0  0
 19 20  1  0  0  0  0
 19 66  1  0  0  0  0
 19 67  1  0  0  0  0
 20 21  1  0  0  0  0
 20 68  1  0  0  0  0
 20 69  1  0  0  0  0
 21 22  1  0  0  0  0
 21 70  1  0  0  0  0
 21 71  1  0  0  0  0
 22 23  1  0  0  0  0
 22 72  1  0  0  0  0
 22 73  1  0  0  0  0
 23 24  1  0  0  0  0
 23 74  1  0  0  0  0
 23 75  1  0  0  0  0
 24 30  1  0  0  0  0
 24 25  1  1  0  0  0
 24 26  1  0  0  0  0
 25 76  1  0  0  0  0
 26 27  1  0  0  0  0
 26 77  1  0  0  0  0
 26 78  1  0  0  0  0
 27 28  1  0  0  0  0
 27 79  1  0  0  0  0
 27 80  1  0  0  0  0
 28 29  1  0  0  0  0
 28 81  1  0  0  0  0
 28 82  1  0  0  0  0
 29 40  1  1  0  0  0
 29 30  1  0  0  0  0
 29 31  1  0  0  0  0
 30 83  1  0  0  0  0
 30 84  1  0  0  0  0
 31 32  2  0  0  0  0
 31 33  1  0  0  0  0
 33 85  1  0  0  0  0
 34 35  1  0  0  0  0
 34 86  1  0  0  0  0
 35 36  2  0  0  0  0
 35 87  1  0  0  0  0
 36 88  1  0  0  0  0
M  END
>  <s_m_source_file>
BACE_86.smi

>  <i_m_source_file_index>
1

>  <i_lp_mmshare_version>
42013

>  <i_f3d_flags>
0

>  <s_epik_input>
W0NIM11bQ0hdKFtDSDNdKWMxW2NIXWMoW2NIXVtjSF1bY0hdMSlbQ0gyXVtOSF1bQ0gyXVtDQEBIXShbT0hdKVtDQEBIXShbTkhdQyg9TylbQ0BASF0oW0NIMl0yKVtDSDJdW0NIMl1bQ0gyXTMpW0NIMl1bQ0BIXShbQ0gzXSlbQ0gyXVtDSDJdW0NIMl1bQ0gyXVtDSDJdW0NIMl1bQ0gyXVtDSDJdW0NAXTIzW09IXQ==

>  <s_epik_cmdline>
J2VwaWtfcHl0aG9uJywgJy1waCcsICc3LjAnLCAnLXRuJywgJzgnLCAnLW1hJywgJzIwMCcsICctaW1hZScsICc8aW5maWxlLm1hZT4nLCAnLW9tYWUnLCAnPG91dGZpbGUubWFlPic=

>  <r_epik_Ionization_Penalty>
2.1143

>  <r_epik_Ionization_Penalty_Charging>
0.0000

>  <r_epik_Ionization_Penalty_Neutral>
2.1143

>  <r_epik_State_Penalty>
2.2515

>  <r_epik_Charging_Adjusted_Penalty>
2.25147

>  <i_epik_Tot_Q>
0

>  <i_epik_Tot_abs_Q>
0

>  <s_lp_Force_Field>
OPLS_2005

>  <r_lp_Energy>
39.3638

>  <b_lp_Chiralities_Consistent>
1

>  <s_lp_Variant>
BACE_86.smi:1-2

>  <chiral flag>
1

>  <version>
0

>  <s_i_glide_gridfile>
second_dock_grid_2

>  <i_i_glide_lignum>
175

>  <i_i_glide_rotatable_bonds>
8

>  <r_i_docking_score>
-0.843681

>  <r_i_glide_ligand_efficiency>
-0.0234356

>  <r_i_glide_ligand_efficiency_sa>
-0.0773826

>  <r_i_glide_ligand_efficiency_ln>
-0.184068

>  <r_glide_XP_GScore>
-3.09518

>  <r_i_glide_gscore>
-3.09518

>  <r_i_glide_evdw>
-36.5685

>  <r_i_glide_ecoul>
-6.67546

>  <r_i_glide_energy>
-43.244

>  <r_i_glide_einternal>
8.10588

>  <r_i_glide_emodel>
-55.3987

>  <r_glide_XP_HBond>
-0.256876

>  <i_i_glide_confnum>
1

>  <i_i_glide_posenum>
1

>  <r_i_glide_eff_state_penalty>
2.2515

>  <i_glide_XP_PoseRank>
1

$$$$
