BACE_25.smi:1
 OpenBabel09291822493D
Structure written by MMmdl.
 85 86  0  0  1  0  0  0  0  0999 V2000
   12.9739   44.2917   -9.0434 C   0  0  0  0  0  0  0  0  0  0  0  0
   13.9616   44.3121  -10.2192 C   0  0  0  0  0  0  0  0  0  0  0  0
   13.2886   43.8028  -11.5052 C   0  0  0  0  0  0  0  0  0  0  0  0
   15.2419   43.5257   -9.8717 C   0  0  0  0  0  0  0  0  0  0  0  0
   15.0454   42.0201   -9.8682 C   0  0  0  0  0  0  0  0  0  0  0  0
   14.8726   41.3144   -8.6603 C   0  0  0  0  0  0  0  0  0  0  0  0
   14.6966   39.9165   -8.7064 C   0  0  0  0  0  0  0  0  0  0  0  0
   14.5091   39.1174   -7.4301 C   0  0  0  0  0  0  0  0  0  0  0  0
   15.7700   38.9855   -6.6712 N   0  3  0  0  0  0  0  0  0  0  0  0
   16.8330   39.9373   -7.0561 C   0  0  0  0  0  0  0  0  0  0  0  0
   18.2315   39.3378   -6.8103 C   0  0  1  0  0  0  0  0  0  0  0  0
   18.2136   37.9593   -7.1271 O   0  0  0  0  0  0  0  0  0  0  0  0
   19.3861   40.0268   -7.5882 C   0  0  2  0  0  0  0  0  0  0  0  0
   20.4696   39.0032   -8.0094 C   0  0  0  0  0  0  0  0  0  0  0  0
   21.3812   39.4433   -9.1810 C   0  0  2  0  0  0  0  0  0  0  0  0
   21.8762   38.2066   -9.9554 C   0  0  0  0  0  0  0  0  0  0  0  0
   22.5704   40.3108   -8.7156 C   0  0  0  0  0  0  0  0  0  0  0  0
   23.2799   41.0541   -9.8588 C   0  0  0  0  0  0  0  0  0  0  0  0
   24.4390   41.8739   -9.3408 C   0  0  0  0  0  0  0  0  0  0  0  0
   24.4938   43.2142   -9.3618 C   0  0  0  0  0  0  0  0  0  0  0  0
   25.6389   44.0180   -8.7859 C   0  0  0  0  0  0  0  0  0  0  0  0
   25.2328   44.8265   -7.5427 C   0  0  0  0  0  0  0  0  0  0  0  0
   24.7116   43.9672   -6.3720 C   0  0  0  0  0  0  0  0  0  0  0  0
   23.1695   43.9101   -6.2830 C   0  0  0  0  0  0  0  0  0  0  0  0
   22.6412   43.0469   -5.1226 C   0  0  0  0  0  0  0  0  0  0  0  0
   23.4698   42.5468   -4.3580 O   0  0  0  0  0  0  0  0  0  0  0  0
   21.3054   42.8330   -4.9509 N   0  0  0  0  0  0  0  0  0  0  0  0
   20.9132   41.9359   -3.8490 C   0  0  0  0  0  0  0  0  0  0  0  0
   20.1756   43.3555   -5.7694 C   0  0  1  0  0  0  0  0  0  0  0  0
   20.2606   44.8335   -6.2078 C   0  0  0  0  0  0  0  0  0  0  0  0
   19.6152   42.3963   -6.8392 C   0  0  0  0  0  0  0  0  0  0  0  0
   18.8248   42.8254   -7.6796 O   0  0  0  0  0  0  0  0  0  0  0  0
   19.9745   41.1016   -6.7847 N   0  0  0  0  0  0  0  0  0  0  0  0
   14.6995   39.2848   -9.9686 C   0  0  0  0  0  0  0  0  0  0  0  0
   14.8664   39.9510  -11.1307 N   0  0  0  0  0  0  0  0  0  0  0  0
   15.0334   41.2900  -11.0757 C   0  0  0  0  0  0  0  0  0  0  0  0
   18.4544   39.3909   -5.7438 H   0  0  0  0  0  0  0  0  0  0  0  0
   18.9660   40.4334   -8.5103 H   0  0  0  0  0  0  0  0  0  0  0  0
   20.7771   40.0313   -9.8732 H   0  0  0  0  0  0  0  0  0  0  0  0
   19.3448   43.4050   -5.0645 H   0  0  0  0  0  0  0  0  0  0  0  0
   12.6487   43.2760   -8.8154 H   0  0  0  0  0  0  0  0  0  0  0  0
   12.0857   44.8838   -9.2654 H   0  0  0  0  0  0  0  0  0  0  0  0
   13.4261   44.7065   -8.1419 H   0  0  0  0  0  0  0  0  0  0  0  0
   14.2411   45.3535  -10.3827 H   0  0  0  0  0  0  0  0  0  0  0  0
   13.0173   42.7502  -11.4198 H   0  0  0  0  0  0  0  0  0  0  0  0
   13.9429   43.9110  -12.3702 H   0  0  0  0  0  0  0  0  0  0  0  0
   12.3783   44.3637  -11.7192 H   0  0  0  0  0  0  0  0  0  0  0  0
   16.0255   43.7592  -10.5939 H   0  0  0  0  0  0  0  0  0  0  0  0
   15.6243   43.8428   -8.9004 H   0  0  0  0  0  0  0  0  0  0  0  0
   14.8748   41.8368   -7.7144 H   0  0  0  0  0  0  0  0  0  0  0  0
   13.7780   39.6274   -6.8020 H   0  0  0  0  0  0  0  0  0  0  0  0
   14.0995   38.1307   -7.6510 H   0  0  0  0  0  0  0  0  0  0  0  0
   15.5690   39.1000   -5.6882 H   0  0  0  0  0  0  0  0  0  0  0  0
   16.7050   40.2131   -8.1031 H   0  0  0  0  0  0  0  0  0  0  0  0
   16.7215   40.8480   -6.4680 H   0  0  0  0  0  0  0  0  0  0  0  0
   17.4453   37.5694   -6.7372 H   0  0  0  0  0  0  0  0  0  0  0  0
   21.0736   38.7014   -7.1526 H   0  0  0  0  0  0  0  0  0  0  0  0
   19.9513   38.0963   -8.3226 H   0  0  0  0  0  0  0  0  0  0  0  0
   22.5087   37.5754   -9.3308 H   0  0  0  0  0  0  0  0  0  0  0  0
   22.4504   38.4823  -10.8392 H   0  0  0  0  0  0  0  0  0  0  0  0
   21.0414   37.5977  -10.3034 H   0  0  0  0  0  0  0  0  0  0  0  0
   22.2331   41.0603   -8.0027 H   0  0  0  0  0  0  0  0  0  0  0  0
   23.2856   39.6902   -8.1740 H   0  0  0  0  0  0  0  0  0  0  0  0
   23.6722   40.3579  -10.5987 H   0  0  0  0  0  0  0  0  0  0  0  0
   22.5732   41.7037  -10.3768 H   0  0  0  0  0  0  0  0  0  0  0  0
   25.2544   41.3155   -8.9035 H   0  0  0  0  0  0  0  0  0  0  0  0
   23.6717   43.7799   -9.7758 H   0  0  0  0  0  0  0  0  0  0  0  0
   26.4642   43.3499   -8.5350 H   0  0  0  0  0  0  0  0  0  0  0  0
   26.0104   44.6895   -9.5603 H   0  0  0  0  0  0  0  0  0  0  0  0
   26.1138   45.3725   -7.2038 H   0  0  0  0  0  0  0  0  0  0  0  0
   24.5012   45.5901   -7.8100 H   0  0  0  0  0  0  0  0  0  0  0  0
   25.1365   42.9637   -6.4264 H   0  0  0  0  0  0  0  0  0  0  0  0
   25.0901   44.3992   -5.4442 H   0  0  0  0  0  0  0  0  0  0  0  0
   22.8342   44.9345   -6.1365 H   0  0  0  0  0  0  0  0  0  0  0  0
   22.7460   43.5429   -7.2176 H   0  0  0  0  0  0  0  0  0  0  0  0
   21.3825   40.9568   -3.9593 H   0  0  0  0  0  0  0  0  0  0  0  0
   19.8389   41.7611   -3.7952 H   0  0  0  0  0  0  0  0  0  0  0  0
   21.2165   42.3527   -2.8873 H   0  0  0  0  0  0  0  0  0  0  0  0
   19.2672   45.2250   -6.4300 H   0  0  0  0  0  0  0  0  0  0  0  0
   20.8462   44.9653   -7.1168 H   0  0  0  0  0  0  0  0  0  0  0  0
   20.6755   45.4633   -5.4203 H   0  0  0  0  0  0  0  0  0  0  0  0
   20.6460   40.8300   -6.0809 H   0  0  0  0  0  0  0  0  0  0  0  0
   14.5719   38.2153  -10.0487 H   0  0  0  0  0  0  0  0  0  0  0  0
   15.1620   41.7932  -12.0227 H   0  0  0  0  0  0  0  0  0  0  0  0
   16.1306   38.0529   -6.8171 H   0  0  0  0  0  0  0  0  0  0  0  0
  1  2  1  0  0  0  0
  1 41  1  0  0  0  0
  1 42  1  0  0  0  0
  1 43  1  0  0  0  0
  2  3  1  0  0  0  0
  2  4  1  0  0  0  0
  2 44  1  0  0  0  0
  3 45  1  0  0  0  0
  3 46  1  0  0  0  0
  3 47  1  0  0  0  0
  4  5  1  0  0  0  0
  4 48  1  0  0  0  0
  4 49  1  0  0  0  0
  5 36  1  0  0  0  0
  5  6  2  0  0  0  0
  6  7  1  0  0  0  0
  6 50  1  0  0  0  0
  7  8  1  0  0  0  0
  7 34  2  0  0  0  0
  8  9  1  0  0  0  0
  8 51  1  0  0  0  0
  8 52  1  0  0  0  0
  9 10  1  0  0  0  0
  9 53  1  0  0  0  0
  9 85  1  0  0  0  0
 10 11  1  0  0  0  0
 10 54  1  0  0  0  0
 10 55  1  0  0  0  0
 11 37  1  1  0  0  0
 11 12  1  0  0  0  0
 11 13  1  0  0  0  0
 12 56  1  0  0  0  0
 13 38  1  6  0  0  0
 13 33  1  0  0  0  0
 13 14  1  0  0  0  0
 14 15  1  0  0  0  0
 14 57  1  0  0  0  0
 14 58  1  0  0  0  0
 15 39  1  6  0  0  0
 15 16  1  0  0  0  0
 15 17  1  0  0  0  0
 16 59  1  0  0  0  0
 16 60  1  0  0  0  0
 16 61  1  0  0  0  0
 17 18  1  0  0  0  0
 17 62  1  0  0  0  0
 17 63  1  0  0  0  0
 18 19  1  0  0  0  0
 18 64  1  0  0  0  0
 18 65  1  0  0  0  0
 19 20  2  0  0  0  0
 19 66  1  0  0  0  0
 20 21  1  0  0  0  0
 20 67  1  0  0  0  0
 21 22  1  0  0  0  0
 21 68  1  0  0  0  0
 21 69  1  0  0  0  0
 22 23  1  0  0  0  0
 22 70  1  0  0  0  0
 22 71  1  0  0  0  0
 23 24  1  0  0  0  0
 23 72  1  0  0  0  0
 23 73  1  0  0  0  0
 24 25  1  0  0  0  0
 24 74  1  0  0  0  0
 24 75  1  0  0  0  0
 25 26  2  0  0  0  0
 25 27  1  0  0  0  0
 27 28  1  0  0  0  0
 27 29  1  0  0  0  0
 28 76  1  0  0  0  0
 28 77  1  0  0  0  0
 28 78  1  0  0  0  0
 29 40  1  1  0  0  0
 29 30  1  0  0  0  0
 29 31  1  0  0  0  0
 30 79  1  0  0  0  0
 30 80  1  0  0  0  0
 30 81  1  0  0  0  0
 31 32  2  0  0  0  0
 31 33  1  0  0  0  0
 33 82  1  0  0  0  0
 34 35  1  0  0  0  0
 34 83  1  0  0  0  0
 35 36  2  0  0  0  0
 36 84  1  0  0  0  0
M  CHG  1   9   1
M  END
>  <s_m_source_file>
BACE_25.smi

>  <i_m_source_file_index>
1

>  <i_lp_mmshare_version>
42013

>  <i_f3d_flags>
0

>  <s_epik_input>
W0NIM11bQ0hdKFtDSDNdKVtDSDJdYzFbY0hdYyhbY0hdbltjSF0xKVtDSDJdW05IXVtDSDJdW0NAQEhdKFtPSF0pW0NAQEhdMltDSDJdW0NASF0oW0NIM10pW0NIMl1bQ0gyXS9bQ0hdPVtDSF0vW0NIMl1bQ0gyXVtDSDJdW0NIMl1DKD1PKU4oW0NIM10pW0NAQEhdKFtDSDNdKUMoPU8pW05IXTI=

>  <s_epik_cmdline>
J2VwaWtfcHl0aG9uJywgJy1waCcsICc3LjAnLCAnLXRuJywgJzgnLCAnLW1hJywgJzIwMCcsICctaW1hZScsICc8aW5maWxlLm1hZT4nLCAnLW9tYWUnLCAnPG91dGZpbGUubWFlPic=

>  <r_epik_Ionization_Penalty>
0.0459

>  <r_epik_Ionization_Penalty_Charging>
0.0402

>  <r_epik_Ionization_Penalty_Neutral>
0.0057

>  <r_epik_State_Penalty>
0.0347

>  <r_epik_Charging_Adjusted_Penalty>
0.0749568

>  <i_epik_Tot_Q>
1

>  <i_epik_Tot_abs_Q>
1

>  <s_lp_Force_Field>
OPLS_2005

>  <r_lp_Energy>
32.316

>  <b_lp_Chiralities_Consistent>
1

>  <s_lp_Variant>
BACE_25.smi:1-1

>  <chiral flag>
1

>  <version>
0

>  <s_i_glide_gridfile>
second_dock_grid_2

>  <i_i_glide_lignum>
41

>  <i_i_glide_rotatable_bonds>
8

>  <r_i_docking_score>
-4.7288

>  <r_i_glide_ligand_efficiency>
-0.131355

>  <r_i_glide_ligand_efficiency_sa>
-0.433726

>  <r_i_glide_ligand_efficiency_ln>
-1.0317

>  <r_glide_XP_GScore>
-4.7635

>  <r_i_glide_gscore>
-4.7635

>  <r_i_glide_evdw>
-23.3968

>  <r_i_glide_ecoul>
-13.4355

>  <r_i_glide_energy>
-36.8323

>  <r_i_glide_einternal>
8.75171

>  <r_i_glide_emodel>
-57.2812

>  <r_glide_XP_HBond>
-0.936652

>  <i_i_glide_confnum>
1

>  <i_i_glide_posenum>
1

>  <r_i_glide_eff_state_penalty>
0.0347

>  <i_glide_XP_PoseRank>
1

$$$$
