BACE_98.smi:1
 OpenBabel09291822493D
Structure written by MMmdl.
 78 82  0  0  1  0  0  0  0  0999 V2000
   20.6706   41.9290   -4.4397 C   0  0  0  0  0  0  0  0  0  0  0  0
   21.9951   41.4459   -5.0321 C   0  0  0  0  0  0  0  0  0  0  0  0
   22.7159   40.5223   -4.0398 C   0  0  0  0  0  0  0  0  0  0  0  0
   21.7959   40.7833   -6.3892 C   0  0  0  0  0  0  0  0  0  0  0  0
   21.2361   39.4942   -6.5057 C   0  0  0  0  0  0  0  0  0  0  0  0
   21.1262   38.9152   -7.7822 C   0  0  0  0  0  0  0  0  0  0  0  0
   21.5426   39.5278   -8.9094 N   0  0  0  0  0  0  0  0  0  0  0  0
   22.0380   40.7778   -8.8030 C   0  0  0  0  0  0  0  0  0  0  0  0
   22.1840   41.4471   -7.5713 C   0  0  0  0  0  0  0  0  0  0  0  0
   22.5206   41.3669  -10.0903 C   0  0  0  0  0  0  0  0  0  0  0  0
   22.0851   42.7202  -10.6147 C   0  0  0  0  0  0  0  0  0  0  0  0
   21.6070   41.4596  -11.2927 C   0  0  0  0  0  0  0  0  0  0  0  0
   23.8933   40.9502  -10.4399 N   0  3  0  0  0  0  0  0  0  0  0  0
   24.9790   41.5415   -9.6270 C   0  0  0  0  0  0  0  0  0  0  0  0
   25.6128   42.8200  -10.2353 C   0  0  1  0  0  0  0  0  0  0  0  0
   26.4095   43.4202   -9.2400 O   0  0  0  0  0  0  0  0  0  0  0  0
   26.4907   42.5870  -11.4963 C   0  0  2  0  0  0  0  0  0  0  0  0
   27.6884   41.6142  -11.2779 C   0  0  0  0  0  0  0  0  0  0  0  0
   29.0821   42.2249  -11.2742 C   0  0  0  0  0  0  0  0  0  0  0  0
   29.5597   42.9057  -10.1335 C   0  0  0  0  0  0  0  0  0  0  0  0
   30.8605   43.4422  -10.1224 C   0  0  0  0  0  0  0  0  0  0  0  0
   31.6941   43.2907  -11.2456 C   0  0  0  0  0  0  0  0  0  0  0  0
   31.2357   42.5898  -12.3793 C   0  0  0  0  0  0  0  0  0  0  0  0
   32.1387   42.4169  -13.5884 C   0  0  0  0  0  0  0  0  0  0  0  0
   31.5991   43.1069  -14.8500 C   0  0  0  0  0  0  0  0  0  0  0  0
   31.3226   44.6121  -14.6795 C   0  0  0  0  0  0  0  0  0  0  0  0
   30.4657   45.1507  -15.8323 C   0  0  0  0  0  0  0  0  0  0  0  0
   29.8979   46.4619  -15.5491 N   0  0  0  0  0  0  0  0  0  0  0  0
   28.6390   46.5716  -14.9466 C   0  0  0  0  0  0  0  0  0  0  0  0
   28.0599   45.5328  -14.1842 C   0  0  0  0  0  0  0  0  0  0  0  0
   26.7817   45.7330  -13.6189 C   0  0  0  0  0  0  0  0  0  0  0  0
   26.1321   46.9594  -13.8598 C   0  0  0  0  0  0  0  0  0  0  0  0
   26.7849   47.9343  -14.6339 C   0  0  0  0  0  0  0  0  0  0  0  0
   25.9846   49.4303  -14.9360 Cl  0  0  0  0  0  0  0  0  0  0  0  0
   28.0082   47.7393  -15.1724 N   0  0  0  0  0  0  0  0  0  0  0  0
   26.0949   44.6493  -12.8408 C   0  0  0  0  0  0  0  0  0  0  0  0
   24.8687   44.5405  -12.8574 O   0  0  0  0  0  0  0  0  0  0  0  0
   26.9002   43.8373  -12.1361 N   0  0  0  0  0  0  0  0  0  0  0  0
   29.9278   42.0618  -12.3915 C   0  0  0  0  0  0  0  0  0  0  0  0
   24.8221   43.5347  -10.4514 H   0  0  0  0  0  0  0  0  0  0  0  0
   25.8277   42.1353  -12.2282 H   0  0  0  0  0  0  0  0  0  0  0  0
   20.1110   42.5457   -5.1428 H   0  0  0  0  0  0  0  0  0  0  0  0
   20.8287   42.5104   -3.5311 H   0  0  0  0  0  0  0  0  0  0  0  0
   20.0599   41.0693   -4.1762 H   0  0  0  0  0  0  0  0  0  0  0  0
   22.6278   42.3207   -5.1846 H   0  0  0  0  0  0  0  0  0  0  0  0
   23.6749   40.1969   -4.4369 H   0  0  0  0  0  0  0  0  0  0  0  0
   22.1319   39.6293   -3.8152 H   0  0  0  0  0  0  0  0  0  0  0  0
   22.8833   41.0397   -3.0962 H   0  0  0  0  0  0  0  0  0  0  0  0
   20.8927   38.9508   -5.6399 H   0  0  0  0  0  0  0  0  0  0  0  0
   20.7022   37.9305   -7.9017 H   0  0  0  0  0  0  0  0  0  0  0  0
   22.6140   42.4372   -7.5334 H   0  0  0  0  0  0  0  0  0  0  0  0
   21.3530   43.2761  -10.0314 H   0  0  0  0  0  0  0  0  0  0  0  0
   22.7664   43.3279  -11.2049 H   0  0  0  0  0  0  0  0  0  0  0  0
   22.0158   41.2507  -12.2801 H   0  0  0  0  0  0  0  0  0  0  0  0
   20.5580   41.1963  -11.1605 H   0  0  0  0  0  0  0  0  0  0  0  0
   23.9195   39.9525  -10.2561 H   0  0  0  0  0  0  0  0  0  0  0  0
   24.6190   41.7519   -8.6215 H   0  0  0  0  0  0  0  0  0  0  0  0
   25.7181   40.7579   -9.4933 H   0  0  0  0  0  0  0  0  0  0  0  0
   26.7735   44.2207   -9.5893 H   0  0  0  0  0  0  0  0  0  0  0  0
   27.6569   40.8406  -12.0434 H   0  0  0  0  0  0  0  0  0  0  0  0
   27.5984   41.0691  -10.3453 H   0  0  0  0  0  0  0  0  0  0  0  0
   28.9430   43.0093   -9.2519 H   0  0  0  0  0  0  0  0  0  0  0  0
   31.2230   43.9649   -9.2498 H   0  0  0  0  0  0  0  0  0  0  0  0
   32.6905   43.7077  -11.2282 H   0  0  0  0  0  0  0  0  0  0  0  0
   33.1396   42.7867  -13.3607 H   0  0  0  0  0  0  0  0  0  0  0  0
   32.2392   41.3500  -13.7860 H   0  0  0  0  0  0  0  0  0  0  0  0
   32.2945   42.9543  -15.6762 H   0  0  0  0  0  0  0  0  0  0  0  0
   30.6786   42.6004  -15.1439 H   0  0  0  0  0  0  0  0  0  0  0  0
   30.8067   44.7914  -13.7361 H   0  0  0  0  0  0  0  0  0  0  0  0
   32.2604   45.1650  -14.6103 H   0  0  0  0  0  0  0  0  0  0  0  0
   29.6600   44.4490  -16.0399 H   0  0  0  0  0  0  0  0  0  0  0  0
   31.0631   45.2119  -16.7436 H   0  0  0  0  0  0  0  0  0  0  0  0
   30.2383   47.2564  -16.0703 H   0  0  0  0  0  0  0  0  0  0  0  0
   28.5760   44.5956  -14.0385 H   0  0  0  0  0  0  0  0  0  0  0  0
   25.1466   47.1526  -13.4589 H   0  0  0  0  0  0  0  0  0  0  0  0
   27.8942   44.0227  -12.1647 H   0  0  0  0  0  0  0  0  0  0  0  0
   29.5807   41.5197  -13.2595 H   0  0  0  0  0  0  0  0  0  0  0  0
   24.0593   41.0765  -11.4328 H   0  0  0  0  0  0  0  0  0  0  0  0
  1  2  1  0  0  0  0
  1 42  1  0  0  0  0
  1 43  1  0  0  0  0
  1 44  1  0  0  0  0
  2  3  1  0  0  0  0
  2  4  1  0  0  0  0
  2 45  1  0  0  0  0
  3 46  1  0  0  0  0
  3 47  1  0  0  0  0
  3 48  1  0  0  0  0
  4  9  1  0  0  0  0
  4  5  2  0  0  0  0
  5  6  1  0  0  0  0
  5 49  1  0  0  0  0
  6  7  2  0  0  0  0
  6 50  1  0  0  0  0
  7  8  1  0  0  0  0
  8  9  2  0  0  0  0
  8 10  1  0  0  0  0
  9 51  1  0  0  0  0
 10 12  1  0  0  0  0
 10 11  1  0  0  0  0
 10 13  1  0  0  0  0
 11 12  1  0  0  0  0
 11 52  1  0  0  0  0
 11 53  1  0  0  0  0
 12 54  1  0  0  0  0
 12 55  1  0  0  0  0
 13 14  1  0  0  0  0
 13 56  1  0  0  0  0
 13 78  1  0  0  0  0
 14 15  1  0  0  0  0
 14 57  1  0  0  0  0
 14 58  1  0  0  0  0
 15 40  1  6  0  0  0
 15 16  1  0  0  0  0
 15 17  1  0  0  0  0
 16 59  1  0  0  0  0
 17 41  1  6  0  0  0
 17 38  1  0  0  0  0
 17 18  1  0  0  0  0
 18 19  1  0  0  0  0
 18 60  1  0  0  0  0
 18 61  1  0  0  0  0
 19 39  1  0  0  0  0
 19 20  2  0  0  0  0
 20 21  1  0  0  0  0
 20 62  1  0  0  0  0
 21 22  2  0  0  0  0
 21 63  1  0  0  0  0
 22 23  1  0  0  0  0
 22 64  1  0  0  0  0
 23 24  1  0  0  0  0
 23 39  2  0  0  0  0
 24 25  1  0  0  0  0
 24 65  1  0  0  0  0
 24 66  1  0  0  0  0
 25 26  1  0  0  0  0
 25 67  1  0  0  0  0
 25 68  1  0  0  0  0
 26 27  1  0  0  0  0
 26 69  1  0  0  0  0
 26 70  1  0  0  0  0
 27 28  1  0  0  0  0
 27 71  1  0  0  0  0
 27 72  1  0  0  0  0
 28 29  1  0  0  0  0
 28 73  1  0  0  0  0
 29 35  1  0  0  0  0
 29 30  2  0  0  0  0
 30 31  1  0  0  0  0
 30 74  1  0  0  0  0
 31 32  2  0  0  0  0
 31 36  1  0  0  0  0
 32 33  1  0  0  0  0
 32 75  1  0  0  0  0
 33 34  1  0  0  0  0
 33 35  2  0  0  0  0
 36 37  2  0  0  0  0
 36 38  1  0  0  0  0
 38 76  1  0  0  0  0
 39 77  1  0  0  0  0
M  CHG  1  13   1
M  END
>  <s_m_source_file>
BACE_98.smi

>  <i_m_source_file_index>
1

>  <i_lp_mmshare_version>
42013

>  <i_f3d_flags>
0

>  <s_epik_input>
W0NIM11bQ0hdKFtDSDNdKWMxW2NIXVtjSF1uYyhbY0hdMSlDMihbQ0gyXVtDSDJdMilbTkhdW0NIMl1bQ0BASF0oW09IXSlbQ0BIXShbQ0gyXTMpW05IXUMoPU8pYyhbY0hdYyhDbCluNClbY0hdYzRbTkhdW0NIMl1bQ0gyXVtDSDJdW0NIMl1jKFtjSF01KVtjSF1bY0hdW2NIXWMzNQ==

>  <s_epik_cmdline>
J2VwaWtfcHl0aG9uJywgJy1waCcsICc3LjAnLCAnLXRuJywgJzgnLCAnLW1hJywgJzIwMCcsICctaW1hZScsICc8aW5maWxlLm1hZT4nLCAnLW9tYWUnLCAnPG91dGZpbGUubWFlPic=

>  <r_lp_tautomer_probability>
1

>  <r_epik_Ionization_Penalty>
0.8144

>  <r_epik_Ionization_Penalty_Charging>
0.8130

>  <r_epik_Ionization_Penalty_Neutral>
0.0014

>  <r_epik_State_Penalty>
1.8513

>  <r_epik_Charging_Adjusted_Penalty>
2.66425

>  <i_epik_Tot_Q>
1

>  <i_epik_Tot_abs_Q>
1

>  <s_lp_Force_Field>
OPLS_2005

>  <r_lp_Energy>
26.2909

>  <b_lp_Chiralities_Consistent>
1

>  <s_lp_Variant>
BACE_98.smi:1-3

>  <chiral flag>
1

>  <version>
0

>  <s_i_glide_gridfile>
second_dock_grid_2

>  <i_i_glide_lignum>
201

>  <i_i_glide_rotatable_bonds>
7

>  <r_i_docking_score>
-2.60675

>  <r_i_glide_ligand_efficiency>
-0.0668397

>  <r_i_glide_ligand_efficiency_sa>
-0.226668

>  <r_i_glide_ligand_efficiency_ln>
-0.558961

>  <r_glide_XP_GScore>
-4.45805

>  <r_i_glide_gscore>
-4.45805

>  <r_i_glide_evdw>
-36.9688

>  <r_i_glide_ecoul>
-9.45013

>  <r_i_glide_energy>
-46.4189

>  <r_i_glide_einternal>
0.876913

>  <r_i_glide_emodel>
-65.8198

>  <r_glide_XP_HBond>
-0.48

>  <i_i_glide_confnum>
1

>  <i_i_glide_posenum>
5

>  <r_i_glide_eff_state_penalty>
1.8513

>  <i_glide_XP_PoseRank>
1

$$$$
