BACE_124.smi:1
 OpenBabel09291822493D
Structure written by MMmdl.
 92 95  0  0  1  0  0  0  0  0999 V2000
   25.8419   50.6753   -5.7831 C   0  0  0  0  0  0  0  0  0  0  0  0
   24.4656   50.5497   -6.1021 O   0  0  0  0  0  0  0  0  0  0  0  0
   24.1242   49.2376   -6.5238 C   0  0  0  0  0  0  0  0  0  0  0  0
   22.6348   49.0990   -6.7695 C   0  0  0  0  0  0  0  0  0  0  0  0
   21.9367   50.1085   -7.4668 C   0  0  0  0  0  0  0  0  0  0  0  0
   20.5437   50.0211   -7.6611 C   0  0  0  0  0  0  0  0  0  0  0  0
   19.8581   48.8879   -7.1701 C   0  0  0  0  0  0  0  0  0  0  0  0
   20.5566   47.8349   -6.5437 C   0  0  0  0  0  0  0  0  0  0  0  0
   21.9455   47.9513   -6.3287 C   0  0  0  0  0  0  0  0  0  0  0  0
   19.8001   46.6218   -6.1126 C   0  0  0  0  0  0  0  0  0  0  0  0
   18.6682   46.7323   -5.6401 O   0  0  0  0  0  0  0  0  0  0  0  0
   20.3919   45.4441   -6.3732 N   0  0  0  0  0  0  0  0  0  0  0  0
   19.7468   44.1328   -6.2429 C   0  0  1  0  0  0  0  0  0  0  0  0
   19.2168   43.6214   -7.6112 C   0  0  0  0  0  0  0  0  0  0  0  0
   18.2549   44.5490   -8.3337 C   0  0  0  0  0  0  0  0  0  0  0  0
   18.7040   45.3881   -9.3764 C   0  0  0  0  0  0  0  0  0  0  0  0
   17.8069   46.2292  -10.0684 C   0  0  0  0  0  0  0  0  0  0  0  0
   16.4403   46.2193   -9.6982 C   0  0  0  0  0  0  0  0  0  0  0  0
   15.9864   45.3759   -8.6667 C   0  0  0  0  0  0  0  0  0  0  0  0
   16.8899   44.5439   -7.9868 C   0  0  0  0  0  0  0  0  0  0  0  0
   18.3308   47.0036  -11.0827 O   0  0  0  0  0  0  0  0  0  0  0  0
   17.5558   48.0653  -11.6392 C   0  0  0  0  0  0  0  0  0  0  0  0
   17.4039   49.2437  -10.6587 C   0  0  0  0  0  0  0  0  0  0  0  0
   18.7551   49.7853  -10.1761 C   0  0  0  0  0  0  0  0  0  0  0  0
   18.6180   50.7847   -9.0142 C   0  0  0  0  0  0  0  0  0  0  0  0
   19.8949   51.0537   -8.3649 N   0  0  0  0  0  0  0  0  0  0  0  0
   20.5796   43.1043   -5.4035 C   0  0  2  0  0  0  0  0  0  0  0  0
   21.5387   43.7499   -4.5852 O   0  0  0  0  0  0  0  0  0  0  0  0
   21.3205   42.0083   -6.2086 C   0  0  0  0  0  0  0  0  0  0  0  0
   20.3598   40.9769   -6.6700 N   0  3  0  0  0  0  0  0  0  0  0  0
   20.7824   39.9249   -7.6298 C   0  0  0  0  0  0  0  0  0  0  0  0
   21.6429   40.5226   -8.7698 C   0  0  0  0  0  0  0  0  0  0  0  0
   21.5840   38.8716   -6.8517 C   0  0  0  0  0  0  0  0  0  0  0  0
   19.5119   39.2971   -8.2377 C   0  0  0  0  0  0  0  0  0  0  0  0
   18.2041   39.7666   -7.9447 C   0  0  0  0  0  0  0  0  0  0  0  0
   17.0838   39.1921   -8.5859 C   0  0  0  0  0  0  0  0  0  0  0  0
   17.3350   38.1612   -9.5154 C   0  0  0  0  0  0  0  0  0  0  0  0
   18.6595   37.7479   -9.7353 C   0  0  0  0  0  0  0  0  0  0  0  0
   19.7233   38.2945   -9.1196 N   0  0  0  0  0  0  0  0  0  0  0  0
   15.6518   39.7063   -8.3440 C   0  0  0  0  0  0  0  0  0  0  0  0
   15.4992   40.4445   -6.9976 C   0  0  0  0  0  0  0  0  0  0  0  0
   15.2790   40.6813   -9.4774 C   0  0  0  0  0  0  0  0  0  0  0  0
   14.6322   38.5488   -8.3264 C   0  0  0  0  0  0  0  0  0  0  0  0
   18.8607   44.2994   -5.6397 H   0  0  0  0  0  0  0  0  0  0  0  0
   19.9011   42.6022   -4.7071 H   0  0  0  0  0  0  0  0  0  0  0  0
   26.0550   51.6985   -5.4719 H   0  0  0  0  0  0  0  0  0  0  0  0
   26.4670   50.4479   -6.6465 H   0  0  0  0  0  0  0  0  0  0  0  0
   26.1234   50.0105   -4.9660 H   0  0  0  0  0  0  0  0  0  0  0  0
   24.4327   48.5142   -5.7668 H   0  0  0  0  0  0  0  0  0  0  0  0
   24.6540   48.9897   -7.4448 H   0  0  0  0  0  0  0  0  0  0  0  0
   22.4821   50.9502   -7.8588 H   0  0  0  0  0  0  0  0  0  0  0  0
   18.7921   48.7840   -7.3107 H   0  0  0  0  0  0  0  0  0  0  0  0
   22.4861   47.1629   -5.8228 H   0  0  0  0  0  0  0  0  0  0  0  0
   21.3271   45.4593   -6.7547 H   0  0  0  0  0  0  0  0  0  0  0  0
   20.0436   43.3966   -8.2854 H   0  0  0  0  0  0  0  0  0  0  0  0
   18.6685   42.6950   -7.4619 H   0  0  0  0  0  0  0  0  0  0  0  0
   19.7458   45.3856   -9.6570 H   0  0  0  0  0  0  0  0  0  0  0  0
   15.7137   46.8433  -10.1977 H   0  0  0  0  0  0  0  0  0  0  0  0
   14.9424   45.3620   -8.3935 H   0  0  0  0  0  0  0  0  0  0  0  0
   16.5291   43.8897   -7.2064 H   0  0  0  0  0  0  0  0  0  0  0  0
   18.0805   48.4119  -12.5298 H   0  0  0  0  0  0  0  0  0  0  0  0
   16.5902   47.7092  -11.9941 H   0  0  0  0  0  0  0  0  0  0  0  0
   16.8382   50.0449  -11.1354 H   0  0  0  0  0  0  0  0  0  0  0  0
   16.8131   48.9321   -9.7970 H   0  0  0  0  0  0  0  0  0  0  0  0
   19.3663   48.9405   -9.8593 H   0  0  0  0  0  0  0  0  0  0  0  0
   19.2942   50.2470  -11.0042 H   0  0  0  0  0  0  0  0  0  0  0  0
   18.2178   51.7265   -9.3949 H   0  0  0  0  0  0  0  0  0  0  0  0
   17.8939   50.4343   -8.2789 H   0  0  0  0  0  0  0  0  0  0  0  0
   20.4815   51.7211   -8.8399 H   0  0  0  0  0  0  0  0  0  0  0  0
   21.0971   44.2937   -3.9430 H   0  0  0  0  0  0  0  0  0  0  0  0
   21.8609   42.4767   -7.0307 H   0  0  0  0  0  0  0  0  0  0  0  0
   22.0662   41.5195   -5.5799 H   0  0  0  0  0  0  0  0  0  0  0  0
   19.9493   40.5239   -5.8621 H   0  0  0  0  0  0  0  0  0  0  0  0
   22.5934   40.9217   -8.4133 H   0  0  0  0  0  0  0  0  0  0  0  0
   21.1144   41.3167   -9.2990 H   0  0  0  0  0  0  0  0  0  0  0  0
   21.9015   39.7614   -9.5089 H   0  0  0  0  0  0  0  0  0  0  0  0
   22.4927   39.2866   -6.4180 H   0  0  0  0  0  0  0  0  0  0  0  0
   21.8830   38.0433   -7.4928 H   0  0  0  0  0  0  0  0  0  0  0  0
   20.9824   38.4683   -6.0399 H   0  0  0  0  0  0  0  0  0  0  0  0
   18.0303   40.5576   -7.2399 H   0  0  0  0  0  0  0  0  0  0  0  0
   16.5368   37.6839  -10.0606 H   0  0  0  0  0  0  0  0  0  0  0  0
   18.8614   36.9522  -10.4372 H   0  0  0  0  0  0  0  0  0  0  0  0
   15.7905   39.8151   -6.1541 H   0  0  0  0  0  0  0  0  0  0  0  0
   14.4599   40.7236   -6.8403 H   0  0  0  0  0  0  0  0  0  0  0  0
   16.0705   41.3719   -6.9504 H   0  0  0  0  0  0  0  0  0  0  0  0
   15.3318   40.1980  -10.4530 H   0  0  0  0  0  0  0  0  0  0  0  0
   15.9524   41.5406   -9.4949 H   0  0  0  0  0  0  0  0  0  0  0  0
   14.2641   41.0610   -9.3526 H   0  0  0  0  0  0  0  0  0  0  0  0
   14.5401   38.0485   -9.2891 H   0  0  0  0  0  0  0  0  0  0  0  0
   13.6404   38.9199   -8.0742 H   0  0  0  0  0  0  0  0  0  0  0  0
   14.8973   37.7993   -7.5789 H   0  0  0  0  0  0  0  0  0  0  0  0
   19.6065   41.4634   -7.1349 H   0  0  0  0  0  0  0  0  0  0  0  0
  1  2  1  0  0  0  0
  1 46  1  0  0  0  0
  1 47  1  0  0  0  0
  1 48  1  0  0  0  0
  2  3  1  0  0  0  0
  3  4  1  0  0  0  0
  3 49  1  0  0  0  0
  3 50  1  0  0  0  0
  4  9  1  0  0  0  0
  4  5  2  0  0  0  0
  5  6  1  0  0  0  0
  5 51  1  0  0  0  0
  6 26  1  0  0  0  0
  6  7  2  0  0  0  0
  7  8  1  0  0  0  0
  7 52  1  0  0  0  0
  8  9  2  0  0  0  0
  8 10  1  0  0  0  0
  9 53  1  0  0  0  0
 10 11  2  0  0  0  0
 10 12  1  0  0  0  0
 12 13  1  0  0  0  0
 12 54  1  0  0  0  0
 13 44  1  1  0  0  0
 13 14  1  0  0  0  0
 13 27  1  0  0  0  0
 14 15  1  0  0  0  0
 14 55  1  0  0  0  0
 14 56  1  0  0  0  0
 15 20  1  0  0  0  0
 15 16  2  0  0  0  0
 16 17  1  0  0  0  0
 16 57  1  0  0  0  0
 17 18  2  0  0  0  0
 17 21  1  0  0  0  0
 18 19  1  0  0  0  0
 18 58  1  0  0  0  0
 19 20  2  0  0  0  0
 19 59  1  0  0  0  0
 20 60  1  0  0  0  0
 21 22  1  0  0  0  0
 22 23  1  0  0  0  0
 22 61  1  0  0  0  0
 22 62  1  0  0  0  0
 23 24  1  0  0  0  0
 23 63  1  0  0  0  0
 23 64  1  0  0  0  0
 24 25  1  0  0  0  0
 24 65  1  0  0  0  0
 24 66  1  0  0  0  0
 25 26  1  0  0  0  0
 25 67  1  0  0  0  0
 25 68  1  0  0  0  0
 26 69  1  0  0  0  0
 27 45  1  1  0  0  0
 27 28  1  0  0  0  0
 27 29  1  0  0  0  0
 28 70  1  0  0  0  0
 29 30  1  0  0  0  0
 29 71  1  0  0  0  0
 29 72  1  0  0  0  0
 30 31  1  0  0  0  0
 30 73  1  0  0  0  0
 30 92  1  0  0  0  0
 31 32  1  0  0  0  0
 31 33  1  0  0  0  0
 31 34  1  0  0  0  0
 32 74  1  0  0  0  0
 32 75  1  0  0  0  0
 32 76  1  0  0  0  0
 33 77  1  0  0  0  0
 33 78  1  0  0  0  0
 33 79  1  0  0  0  0
 34 39  1  0  0  0  0
 34 35  2  0  0  0  0
 35 36  1  0  0  0  0
 35 80  1  0  0  0  0
 36 37  2  0  0  0  0
 36 40  1  0  0  0  0
 37 38  1  0  0  0  0
 37 81  1  0  0  0  0
 38 39  2  0  0  0  0
 38 82  1  0  0  0  0
 40 41  1  0  0  0  0
 40 42  1  0  0  0  0
 40 43  1  0  0  0  0
 41 83  1  0  0  0  0
 41 84  1  0  0  0  0
 41 85  1  0  0  0  0
 42 86  1  0  0  0  0
 42 87  1  0  0  0  0
 42 88  1  0  0  0  0
 43 89  1  0  0  0  0
 43 90  1  0  0  0  0
 43 91  1  0  0  0  0
M  CHG  1  30   1
M  END
>  <s_m_source_file>
BACE_124.smi

>  <i_m_source_file_index>
1

>  <i_lp_mmshare_version>
42013

>  <i_f3d_flags>
0

>  <s_epik_input>
bjFbY0hdW2NIXWMoQyhbQ0gzXSkoW0NIM10pW0NIM10pW2NIXWMxQyhbQ0gzXSkoW0NIM10pW05IXVtDSDJdW0NAQEhdKFtPSF0pW0NAQEhdKFtOSF1DKD1PKWMoW2NIXTIpW2NIXWMoW2NIXWMyMylbQ0gyXU9bQ0gzXSlbQ0gyXWM0W2NIXWMoW2NIXVtjSF1bY0hdNClPW0NIMl1bQ0gyXVtDSDJdW0NIMl1bTkhdMw==

>  <s_epik_cmdline>
J2VwaWtfcHl0aG9uJywgJy1waCcsICc3LjAnLCAnLXRuJywgJzgnLCAnLW1hJywgJzIwMCcsICctaW1hZScsICc8aW5maWxlLm1hZT4nLCAnLW9tYWUnLCAnPG91dGZpbGUubWFlPic=

>  <r_lp_tautomer_probability>
1

>  <r_epik_Ionization_Penalty>
0.0394

>  <r_epik_Ionization_Penalty_Charging>
0.0379

>  <r_epik_Ionization_Penalty_Neutral>
0.0015

>  <r_epik_State_Penalty>
0.0317

>  <r_epik_Charging_Adjusted_Penalty>
0.0696342

>  <i_epik_Tot_Q>
1

>  <i_epik_Tot_abs_Q>
1

>  <s_lp_Force_Field>
OPLS_2005

>  <r_lp_Energy>
32.4916

>  <b_lp_Chiralities_Consistent>
1

>  <s_lp_Variant>
BACE_124.smi:1-1

>  <chiral flag>
1

>  <version>
0

>  <s_i_glide_gridfile>
second_dock_grid_2

>  <i_i_glide_lignum>
254

>  <i_i_glide_rotatable_bonds>
9

>  <r_i_docking_score>
-4.82601

>  <r_i_glide_ligand_efficiency>
-0.112233

>  <r_i_glide_ligand_efficiency_sa>
-0.393196

>  <r_i_glide_ligand_efficiency_ln>
-1.01361

>  <r_glide_XP_GScore>
-4.85771

>  <r_i_glide_gscore>
-4.85771

>  <r_i_glide_evdw>
-40.7048

>  <r_i_glide_ecoul>
-14.6768

>  <r_i_glide_energy>
-55.3817

>  <r_i_glide_einternal>
3.26762

>  <r_i_glide_emodel>
-76.367

>  <r_glide_XP_HBond>
-1.31269

>  <i_i_glide_confnum>
1

>  <i_i_glide_posenum>
1

>  <r_i_glide_eff_state_penalty>
0.0317

>  <i_glide_XP_PoseRank>
1

$$$$
