BACE_157.smi:1
 OpenBabel09291822493D
Structure written by MMmdl.
 77 79  0  0  1  0  0  0  0  0999 V2000
   23.5097   43.7575    2.8330 C   0  0  0  0  0  0  0  0  0  0  0  0
   22.3784   44.3405    1.9885 C   0  0  0  0  0  0  0  0  0  0  0  0
   22.1786   43.5968    0.6727 C   0  0  0  0  0  0  0  0  0  0  0  0
   20.7634   43.7541    0.1053 C   0  0  0  0  0  0  0  0  0  0  0  0
   20.7074   43.3500   -1.2907 N   0  0  0  0  0  0  0  0  0  0  0  0
   20.4375   42.1336   -1.7753 C   0  0  0  0  0  0  0  0  0  0  0  0
   20.0600   41.2188   -1.0511 O   0  0  0  0  0  0  0  0  0  0  0  0
   20.5783   41.8973   -3.2912 C   0  0  2  0  0  0  0  0  0  0  0  0
   20.7711   40.3990   -3.6155 C   0  0  0  0  0  0  0  0  0  0  0  0
   21.6291   42.7825   -4.0303 C   0  0  0  0  0  0  0  0  0  0  0  0
   21.0756   43.5282   -5.2709 C   0  0  2  0  0  0  0  0  0  0  0  0
   20.0906   44.4493   -4.8401 O   0  0  0  0  0  0  0  0  0  0  0  0
   20.5234   42.5945   -6.3815 C   0  0  2  0  0  0  0  0  0  0  0  0
   21.6352   41.7045   -7.0091 C   0  0  0  0  0  0  0  0  0  0  0  0
   21.3110   41.0207   -8.3315 C   0  0  0  0  0  0  0  0  0  0  0  0
   20.0113   40.5539   -8.6309 C   0  0  0  0  0  0  0  0  0  0  0  0
   19.7096   40.0176   -9.9053 C   0  0  0  0  0  0  0  0  0  0  0  0
   18.2856   39.6180  -10.2913 C   0  0  0  0  0  0  0  0  0  0  0  0
   17.2133   39.8738   -9.2421 C   0  0  0  0  0  0  0  0  0  0  0  0
   16.7445   38.7850   -8.4766 C   0  0  0  0  0  0  0  0  0  0  0  0
   15.7579   38.9806   -7.4974 C   0  0  0  0  0  0  0  0  0  0  0  0
   15.2466   40.2661   -7.2689 C   0  0  0  0  0  0  0  0  0  0  0  0
   15.6936   41.3553   -8.0398 C   0  0  0  0  0  0  0  0  0  0  0  0
   16.6826   41.1744   -9.0387 C   0  0  0  0  0  0  0  0  0  0  0  0
   17.1850   42.2097   -9.8044 O   0  0  0  0  0  0  0  0  0  0  0  0
   16.3748   43.3630  -10.0484 C   0  0  0  0  0  0  0  0  0  0  0  0
   16.5609   44.4534   -8.9772 C   0  0  0  0  0  0  0  0  0  0  0  0
   15.5645   44.9322   -8.4382 O   0  0  0  0  0  0  0  0  0  0  0  0
   17.7851   44.9010   -8.6497 N   0  0  0  0  0  0  0  0  0  0  0  0
   19.0716   44.6548   -9.3093 C   0  0  1  0  0  0  0  0  0  0  0  0
   19.4737   45.8945  -10.1257 C   0  0  0  0  0  0  0  0  0  0  0  0
   20.1378   44.1816   -8.3074 C   0  0  0  0  0  0  0  0  0  0  0  0
   21.3013   44.5742   -8.3905 O   0  0  0  0  0  0  0  0  0  0  0  0
   19.7200   43.3173   -7.3719 N   0  0  0  0  0  0  0  0  0  0  0  0
   20.7530   39.8756  -10.8490 C   0  0  0  0  0  0  0  0  0  0  0  0
   20.5160   39.3504  -12.0848 O   0  0  0  0  0  0  0  0  0  0  0  0
   22.0604   40.2821  -10.5281 C   0  0  0  0  0  0  0  0  0  0  0  0
   22.3377   40.8632   -9.2816 C   0  0  0  0  0  0  0  0  0  0  0  0
   19.5971   42.1825   -3.6492 H   0  0  0  0  0  0  0  0  0  0  0  0
   21.8846   44.1256   -5.6941 H   0  0  0  0  0  0  0  0  0  0  0  0
   19.7897   41.9230   -5.9431 H   0  0  0  0  0  0  0  0  0  0  0  0
   18.9816   43.8368  -10.0223 H   0  0  0  0  0  0  0  0  0  0  0  0
   23.6596   44.3664    3.7223 H   0  0  0  0  0  0  0  0  0  0  0  0
   24.4505   43.7152    2.2850 H   0  0  0  0  0  0  0  0  0  0  0  0
   23.2600   42.7481    3.1599 H   0  0  0  0  0  0  0  0  0  0  0  0
   21.4600   44.3427    2.5750 H   0  0  0  0  0  0  0  0  0  0  0  0
   22.6010   45.3713    1.7510 H   0  0  0  0  0  0  0  0  0  0  0  0
   22.9245   43.9276   -0.0503 H   0  0  0  0  0  0  0  0  0  0  0  0
   22.3679   42.5500    0.8610 H   0  0  0  0  0  0  0  0  0  0  0  0
   20.0600   43.1794    0.7067 H   0  0  0  0  0  0  0  0  0  0  0  0
   20.4601   44.7994    0.1580 H   0  0  0  0  0  0  0  0  0  0  0  0
   20.8820   44.0877   -1.9647 H   0  0  0  0  0  0  0  0  0  0  0  0
   20.0600   39.7667   -3.0835 H   0  0  0  0  0  0  0  0  0  0  0  0
   21.7746   40.0626   -3.3518 H   0  0  0  0  0  0  0  0  0  0  0  0
   20.6150   40.1891   -4.6714 H   0  0  0  0  0  0  0  0  0  0  0  0
   22.0880   43.5185   -3.3712 H   0  0  0  0  0  0  0  0  0  0  0  0
   22.4713   42.1622   -4.3353 H   0  0  0  0  0  0  0  0  0  0  0  0
   20.4600   44.9502   -4.1229 H   0  0  0  0  0  0  0  0  0  0  0  0
   22.5143   42.3280   -7.1751 H   0  0  0  0  0  0  0  0  0  0  0  0
   21.9561   40.9363   -6.3083 H   0  0  0  0  0  0  0  0  0  0  0  0
   19.2370   40.6556   -7.8859 H   0  0  0  0  0  0  0  0  0  0  0  0
   18.0065   40.1496  -11.2018 H   0  0  0  0  0  0  0  0  0  0  0  0
   18.2844   38.5579  -10.5494 H   0  0  0  0  0  0  0  0  0  0  0  0
   17.1438   37.7927   -8.6277 H   0  0  0  0  0  0  0  0  0  0  0  0
   15.4005   38.1501   -6.9047 H   0  0  0  0  0  0  0  0  0  0  0  0
   14.5072   40.4120   -6.4950 H   0  0  0  0  0  0  0  0  0  0  0  0
   15.2737   42.3242   -7.8214 H   0  0  0  0  0  0  0  0  0  0  0  0
   16.6658   43.7803  -11.0124 H   0  0  0  0  0  0  0  0  0  0  0  0
   15.3218   43.0916  -10.1426 H   0  0  0  0  0  0  0  0  0  0  0  0
   17.8129   45.5719   -7.8970 H   0  0  0  0  0  0  0  0  0  0  0  0
   20.4054   45.7256  -10.6676 H   0  0  0  0  0  0  0  0  0  0  0  0
   19.6161   46.7640   -9.4835 H   0  0  0  0  0  0  0  0  0  0  0  0
   18.7102   46.1436  -10.8635 H   0  0  0  0  0  0  0  0  0  0  0  0
   18.7368   43.0856   -7.3803 H   0  0  0  0  0  0  0  0  0  0  0  0
   19.6243   39.0658  -12.2141 H   0  0  0  0  0  0  0  0  0  0  0  0
   22.8597   40.1651  -11.2425 H   0  0  0  0  0  0  0  0  0  0  0  0
   23.3431   41.1921   -9.0645 H   0  0  0  0  0  0  0  0  0  0  0  0
  1  2  1  0  0  0  0
  1 43  1  0  0  0  0
  1 44  1  0  0  0  0
  1 45  1  0  0  0  0
  2  3  1  0  0  0  0
  2 46  1  0  0  0  0
  2 47  1  0  0  0  0
  3  4  1  0  0  0  0
  3 48  1  0  0  0  0
  3 49  1  0  0  0  0
  4  5  1  0  0  0  0
  4 50  1  0  0  0  0
  4 51  1  0  0  0  0
  5  6  1  0  0  0  0
  5 52  1  0  0  0  0
  6  7  2  0  0  0  0
  6  8  1  0  0  0  0
  8 39  1  6  0  0  0
  8  9  1  0  0  0  0
  8 10  1  0  0  0  0
  9 53  1  0  0  0  0
  9 54  1  0  0  0  0
  9 55  1  0  0  0  0
 10 11  1  0  0  0  0
 10 56  1  0  0  0  0
 10 57  1  0  0  0  0
 11 40  1  6  0  0  0
 11 12  1  0  0  0  0
 11 13  1  0  0  0  0
 12 58  1  0  0  0  0
 13 41  1  1  0  0  0
 13 34  1  0  0  0  0
 13 14  1  0  0  0  0
 14 15  1  0  0  0  0
 14 59  1  0  0  0  0
 14 60  1  0  0  0  0
 15 38  1  0  0  0  0
 15 16  2  0  0  0  0
 16 17  1  0  0  0  0
 16 61  1  0  0  0  0
 17 18  1  0  0  0  0
 17 35  2  0  0  0  0
 18 19  1  0  0  0  0
 18 62  1  0  0  0  0
 18 63  1  0  0  0  0
 19 24  2  0  0  0  0
 19 20  1  0  0  0  0
 20 21  2  0  0  0  0
 20 64  1  0  0  0  0
 21 22  1  0  0  0  0
 21 65  1  0  0  0  0
 22 23  2  0  0  0  0
 22 66  1  0  0  0  0
 23 24  1  0  0  0  0
 23 67  1  0  0  0  0
 24 25  1  0  0  0  0
 25 26  1  0  0  0  0
 26 27  1  0  0  0  0
 26 68  1  0  0  0  0
 26 69  1  0  0  0  0
 27 28  2  0  0  0  0
 27 29  1  0  0  0  0
 29 30  1  0  0  0  0
 29 70  1  0  0  0  0
 30 42  1  6  0  0  0
 30 31  1  0  0  0  0
 30 32  1  0  0  0  0
 31 71  1  0  0  0  0
 31 72  1  0  0  0  0
 31 73  1  0  0  0  0
 32 33  2  0  0  0  0
 32 34  1  0  0  0  0
 34 74  1  0  0  0  0
 35 36  1  0  0  0  0
 35 37  1  0  0  0  0
 36 75  1  0  0  0  0
 37 38  2  0  0  0  0
 37 76  1  0  0  0  0
 38 77  1  0  0  0  0
M  END
>  <s_m_source_file>
BACE_157.smi

>  <i_m_source_file_index>
1

>  <i_lp_mmshare_version>
42013

>  <i_f3d_flags>
0

>  <s_epik_input>
W0NIM11bQ0gyXVtDSDJdW0NIMl1bTkhdQyg9TylbQ0BIXShbQ0gzXSlbQ0gyXVtDQEhdKFtPSF0pW0NASF0oW0NIMl0xKVtOSF1DKD1PKVtDQEhdKFtDSDNdKVtOSF1DKD1PKVtDSDJdT2MoW2NIXVtjSF1bY0hdW2NIXTIpYzJbQ0gyXWMoW2NIXWMxMyljKFtPSF0pW2NIXVtjSF0z

>  <s_epik_cmdline>
J2VwaWtfcHl0aG9uJywgJy1waCcsICc3LjAnLCAnLXRuJywgJzgnLCAnLW1hJywgJzIwMCcsICctaW1hZScsICc8aW5maWxlLm1hZT4nLCAnLW9tYWUnLCAnPG91dGZpbGUubWFlPic=

>  <r_lp_tautomer_probability>
1

>  <r_epik_Ionization_Penalty>
0.0002

>  <r_epik_Ionization_Penalty_Charging>
0.0000

>  <r_epik_Ionization_Penalty_Neutral>
0.0002

>  <r_epik_State_Penalty>
-0.0000

>  <r_epik_Charging_Adjusted_Penalty>
0

>  <i_epik_Tot_Q>
0

>  <i_epik_Tot_abs_Q>
0

>  <s_lp_Force_Field>
OPLS_2005

>  <r_lp_Energy>
26.8776

>  <b_lp_Chiralities_Consistent>
1

>  <s_lp_Variant>
BACE_157.smi:1-1

>  <chiral flag>
1

>  <version>
0

>  <s_i_glide_gridfile>
second_dock_grid_2

>  <i_i_glide_lignum>
311

>  <i_i_glide_rotatable_bonds>
10

>  <r_i_docking_score>
-6.40307

>  <r_i_glide_ligand_efficiency>
-0.168502

>  <r_i_glide_ligand_efficiency_sa>
-0.566499

>  <r_i_glide_ligand_efficiency_ln>
-1.38069

>  <r_glide_XP_GScore>
-6.40307

>  <r_i_glide_gscore>
-6.40307

>  <r_i_glide_evdw>
-44.2916

>  <r_i_glide_ecoul>
-10.0741

>  <r_i_glide_energy>
-54.3656

>  <r_i_glide_einternal>
11.643

>  <r_i_glide_emodel>
-69.3557

>  <r_glide_XP_HBond>
-0.56452

>  <i_i_glide_confnum>
1

>  <i_i_glide_posenum>
6

>  <r_i_glide_eff_state_penalty>
-0

>  <i_glide_XP_PoseRank>
1

$$$$
