BACE_136.smi:1
 OpenBabel09291822493D
Structure written by MMmdl.
 84 88  0  0  1  0  0  0  0  0999 V2000
   15.7623   47.8874  -12.8335 C   0  0  0  0  0  0  0  0  0  0  0  0
   16.8704   47.2921  -11.9523 C   0  0  0  0  0  0  0  0  0  0  0  0
   16.8153   47.8278  -10.5140 C   0  0  0  0  0  0  0  0  0  0  0  0
   16.8537   45.7715  -11.9792 C   0  0  0  0  0  0  0  0  0  0  0  0
   15.7795   45.0368  -11.4316 C   0  0  0  0  0  0  0  0  0  0  0  0
   15.8331   43.6280  -11.4705 C   0  0  0  0  0  0  0  0  0  0  0  0
   14.7190   42.7925  -10.8432 C   0  0  0  0  0  0  0  0  0  0  0  0
   15.0001   41.3522  -10.8709 N   0  0  0  0  0  0  0  0  0  0  0  0
   14.5424   40.5675   -9.7104 C   0  0  0  0  0  0  0  0  0  0  0  0
   15.2773   40.9143   -8.3835 C   0  0  1  0  0  0  0  0  0  0  0  0
   14.7040   40.1481   -7.3458 O   0  0  0  0  0  0  0  0  0  0  0  0
   16.7963   40.6107   -8.4301 C   0  0  2  0  0  0  0  0  0  0  0  0
   17.1854   39.1512   -8.0813 C   0  0  0  0  0  0  0  0  0  0  0  0
   18.6764   38.9139   -8.1883 C   0  0  0  0  0  0  0  0  0  0  0  0
   19.4797   39.1240   -7.0543 C   0  0  0  0  0  0  0  0  0  0  0  0
   20.8787   39.0143   -7.1480 C   0  0  0  0  0  0  0  0  0  0  0  0
   21.7141   39.3618   -5.9392 C   0  0  0  0  0  0  0  0  0  0  0  0
   22.3717   40.7410   -6.0942 C   0  0  0  0  0  0  0  0  0  0  0  0
   22.6823   41.4133   -4.7450 C   0  0  0  0  0  0  0  0  0  0  0  0
   21.4720   42.1119   -4.0956 C   0  0  0  0  0  0  0  0  0  0  0  0
   21.4022   43.4785   -4.4912 O   0  0  0  0  0  0  0  0  0  0  0  0
   20.5127   43.9086   -5.4556 C   0  0  0  0  0  0  0  0  0  0  0  0
   19.6944   43.0710   -6.2498 C   0  0  0  0  0  0  0  0  0  0  0  0
   18.8160   43.6234   -7.2052 C   0  0  0  0  0  0  0  0  0  0  0  0
   18.7400   45.0229   -7.3532 C   0  0  0  0  0  0  0  0  0  0  0  0
   19.5311   45.8846   -6.5582 C   0  0  0  0  0  0  0  0  0  0  0  0
   20.4313   45.3023   -5.6397 C   0  0  0  0  0  0  0  0  0  0  0  0
   19.4730   47.3074   -6.7023 N   0  0  0  0  0  0  0  0  0  0  0  0
   20.6083   48.1694   -6.3900 C   0  0  0  0  0  0  0  0  0  0  0  0
   20.1428   49.6098   -6.6380 C   0  0  0  0  0  0  0  0  0  0  0  0
   18.7718   49.4923   -7.3011 C   0  0  0  0  0  0  0  0  0  0  0  0
   18.4184   48.0275   -7.1306 C   0  0  0  0  0  0  0  0  0  0  0  0
   17.2809   47.6173   -7.3451 O   0  0  0  0  0  0  0  0  0  0  0  0
   18.0323   42.7455   -8.1316 C   0  0  0  0  0  0  0  0  0  0  0  0
   17.8440   43.1134   -9.2871 O   0  0  0  0  0  0  0  0  0  0  0  0
   17.5371   41.5995   -7.6402 N   0  0  0  0  0  0  0  0  0  0  0  0
   21.4762   38.6493   -8.3711 C   0  0  0  0  0  0  0  0  0  0  0  0
   20.6694   38.4170   -9.5010 C   0  0  0  0  0  0  0  0  0  0  0  0
   19.2697   38.5498   -9.4151 C   0  0  0  0  0  0  0  0  0  0  0  0
   16.8600   42.9510  -12.0406 N   0  0  0  0  0  0  0  0  0  0  0  0
   17.8928   43.6567  -12.5381 C   0  0  0  0  0  0  0  0  0  0  0  0
   17.9335   45.0620  -12.5435 C   0  0  0  0  0  0  0  0  0  0  0  0
   15.1018   41.9636   -8.1399 H   0  0  0  0  0  0  0  0  0  0  0  0
   17.1258   40.7386   -9.4611 H   0  0  0  0  0  0  0  0  0  0  0  0
   15.8736   47.5650  -13.8691 H   0  0  0  0  0  0  0  0  0  0  0  0
   15.7998   48.9769  -12.8255 H   0  0  0  0  0  0  0  0  0  0  0  0
   14.7720   47.5815  -12.4962 H   0  0  0  0  0  0  0  0  0  0  0  0
   17.8229   47.6186  -12.3746 H   0  0  0  0  0  0  0  0  0  0  0  0
   17.6466   47.4330   -9.9298 H   0  0  0  0  0  0  0  0  0  0  0  0
   15.8910   47.5453  -10.0075 H   0  0  0  0  0  0  0  0  0  0  0  0
   16.8915   48.9140  -10.4944 H   0  0  0  0  0  0  0  0  0  0  0  0
   14.9452   45.5398  -10.9687 H   0  0  0  0  0  0  0  0  0  0  0  0
   13.7824   42.9946  -11.3641 H   0  0  0  0  0  0  0  0  0  0  0  0
   14.5824   43.1487   -9.8226 H   0  0  0  0  0  0  0  0  0  0  0  0
   16.0033   41.2446  -11.0109 H   0  0  0  0  0  0  0  0  0  0  0  0
   14.6829   39.5066   -9.9193 H   0  0  0  0  0  0  0  0  0  0  0  0
   13.4679   40.7008   -9.5981 H   0  0  0  0  0  0  0  0  0  0  0  0
   14.6268   40.6731   -6.5551 H   0  0  0  0  0  0  0  0  0  0  0  0
   16.6619   38.4504   -8.7319 H   0  0  0  0  0  0  0  0  0  0  0  0
   16.8795   38.8986   -7.0632 H   0  0  0  0  0  0  0  0  0  0  0  0
   19.0209   39.4209   -6.1212 H   0  0  0  0  0  0  0  0  0  0  0  0
   22.4593   38.5853   -5.7854 H   0  0  0  0  0  0  0  0  0  0  0  0
   21.0750   39.3508   -5.0571 H   0  0  0  0  0  0  0  0  0  0  0  0
   23.2600   40.6194   -6.7007 H   0  0  0  0  0  0  0  0  0  0  0  0
   21.7464   41.4041   -6.6839 H   0  0  0  0  0  0  0  0  0  0  0  0
   23.0820   40.6619   -4.0596 H   0  0  0  0  0  0  0  0  0  0  0  0
   23.4791   42.1498   -4.8668 H   0  0  0  0  0  0  0  0  0  0  0  0
   20.5425   41.5585   -4.2153 H   0  0  0  0  0  0  0  0  0  0  0  0
   21.6435   42.1375   -3.0187 H   0  0  0  0  0  0  0  0  0  0  0  0
   19.7308   41.9983   -6.1456 H   0  0  0  0  0  0  0  0  0  0  0  0
   18.0808   45.4245   -8.1091 H   0  0  0  0  0  0  0  0  0  0  0  0
   21.0661   45.9179   -5.0225 H   0  0  0  0  0  0  0  0  0  0  0  0
   20.9315   48.0612   -5.3557 H   0  0  0  0  0  0  0  0  0  0  0  0
   21.4458   47.9098   -7.0375 H   0  0  0  0  0  0  0  0  0  0  0  0
   20.8484   50.1542   -7.2624 H   0  0  0  0  0  0  0  0  0  0  0  0
   20.0630   50.1485   -5.6922 H   0  0  0  0  0  0  0  0  0  0  0  0
   18.0194   50.1291   -6.8407 H   0  0  0  0  0  0  0  0  0  0  0  0
   18.8236   49.7284   -8.3633 H   0  0  0  0  0  0  0  0  0  0  0  0
   17.6649   41.3979   -6.6501 H   0  0  0  0  0  0  0  0  0  0  0  0
   22.5501   38.5658   -8.4525 H   0  0  0  0  0  0  0  0  0  0  0  0
   21.1300   38.1498  -10.4385 H   0  0  0  0  0  0  0  0  0  0  0  0
   18.6567   38.3877  -10.2888 H   0  0  0  0  0  0  0  0  0  0  0  0
   18.7046   43.0837  -12.9626 H   0  0  0  0  0  0  0  0  0  0  0  0
   18.7823   45.5791  -12.9653 H   0  0  0  0  0  0  0  0  0  0  0  0
  1  2  1  0  0  0  0
  1 45  1  0  0  0  0
  1 46  1  0  0  0  0
  1 47  1  0  0  0  0
  2  3  1  0  0  0  0
  2  4  1  0  0  0  0
  2 48  1  0  0  0  0
  3 49  1  0  0  0  0
  3 50  1  0  0  0  0
  3 51  1  0  0  0  0
  4 42  1  0  0  0  0
  4  5  2  0  0  0  0
  5  6  1  0  0  0  0
  5 52  1  0  0  0  0
  6  7  1  0  0  0  0
  6 40  2  0  0  0  0
  7  8  1  0  0  0  0
  7 53  1  0  0  0  0
  7 54  1  0  0  0  0
  8  9  1  0  0  0  0
  8 55  1  0  0  0  0
  9 10  1  0  0  0  0
  9 56  1  0  0  0  0
  9 57  1  0  0  0  0
 10 43  1  1  0  0  0
 10 11  1  0  0  0  0
 10 12  1  0  0  0  0
 11 58  1  0  0  0  0
 12 44  1  6  0  0  0
 12 36  1  0  0  0  0
 12 13  1  0  0  0  0
 13 14  1  0  0  0  0
 13 59  1  0  0  0  0
 13 60  1  0  0  0  0
 14 39  1  0  0  0  0
 14 15  2  0  0  0  0
 15 16  1  0  0  0  0
 15 61  1  0  0  0  0
 16 17  1  0  0  0  0
 16 37  2  0  0  0  0
 17 18  1  0  0  0  0
 17 62  1  0  0  0  0
 17 63  1  0  0  0  0
 18 19  1  0  0  0  0
 18 64  1  0  0  0  0
 18 65  1  0  0  0  0
 19 20  1  0  0  0  0
 19 66  1  0  0  0  0
 19 67  1  0  0  0  0
 20 21  1  0  0  0  0
 20 68  1  0  0  0  0
 20 69  1  0  0  0  0
 21 22  1  0  0  0  0
 22 27  1  0  0  0  0
 22 23  2  0  0  0  0
 23 24  1  0  0  0  0
 23 70  1  0  0  0  0
 24 25  2  0  0  0  0
 24 34  1  0  0  0  0
 25 26  1  0  0  0  0
 25 71  1  0  0  0  0
 26 27  2  0  0  0  0
 26 28  1  0  0  0  0
 27 72  1  0  0  0  0
 28 32  1  0  0  0  0
 28 29  1  0  0  0  0
 29 30  1  0  0  0  0
 29 73  1  0  0  0  0
 29 74  1  0  0  0  0
 30 31  1  0  0  0  0
 30 75  1  0  0  0  0
 30 76  1  0  0  0  0
 31 32  1  0  0  0  0
 31 77  1  0  0  0  0
 31 78  1  0  0  0  0
 32 33  2  0  0  0  0
 34 35  2  0  0  0  0
 34 36  1  0  0  0  0
 36 79  1  0  0  0  0
 37 38  1  0  0  0  0
 37 80  1  0  0  0  0
 38 39  2  0  0  0  0
 38 81  1  0  0  0  0
 39 82  1  0  0  0  0
 40 41  1  0  0  0  0
 41 42  2  0  0  0  0
 41 83  1  0  0  0  0
 42 84  1  0  0  0  0
M  END
>  <s_m_source_file>
BACE_136.smi

>  <i_m_source_file_index>
1

>  <i_lp_mmshare_version>
42013

>  <i_f3d_flags>
0

>  <s_epik_input>
W0NIM11bQ0hdKFtDSDNdKWMxW2NIXWMobltjSF1bY0hdMSlbQ0gyXVtOSF1bQ0gyXVtDQEBIXShbT0hdKVtDQEhdKFtDSDJdMilbTkhdQyg9TyljKFtjSF1jKFtjSF0zKU40W0NIMl1bQ0gyXVtDSDJdQzQ9TylbY0hdYzNPW0NIMl1bQ0gyXVtDSDJdW0NIMl1jKFtjSF1jMjUpW2NIXVtjSF1bY0hdNQ==

>  <s_epik_cmdline>
J2VwaWtfcHl0aG9uJywgJy1waCcsICc3LjAnLCAnLXRuJywgJzgnLCAnLW1hJywgJzIwMCcsICctaW1hZScsICc8aW5maWxlLm1hZT4nLCAnLW9tYWUnLCAnPG91dGZpbGUubWFlPic=

>  <r_lp_tautomer_probability>
1

>  <r_epik_Ionization_Penalty>
1.6445

>  <r_epik_Ionization_Penalty_Charging>
0.0000

>  <r_epik_Ionization_Penalty_Neutral>
1.6445

>  <r_epik_State_Penalty>
1.7443

>  <r_epik_Charging_Adjusted_Penalty>
1.74428

>  <i_epik_Tot_Q>
0

>  <i_epik_Tot_abs_Q>
0

>  <s_lp_Force_Field>
OPLS_2005

>  <r_lp_Energy>
62.4518

>  <b_lp_Chiralities_Consistent>
1

>  <s_lp_Variant>
BACE_136.smi:1-2

>  <chiral flag>
1

>  <version>
0

>  <s_i_glide_gridfile>
second_dock_grid_2

>  <i_i_glide_lignum>
280

>  <i_i_glide_rotatable_bonds>
8

>  <r_i_docking_score>
-3.69403

>  <r_i_glide_ligand_efficiency>
-0.0879531

>  <r_i_glide_ligand_efficiency_sa>
-0.305727

>  <r_i_glide_ligand_efficiency_ln>
-0.779715

>  <r_glide_XP_GScore>
-5.43833

>  <r_i_glide_gscore>
-5.43833

>  <r_i_glide_evdw>
-43.6179

>  <r_i_glide_ecoul>
-11.0502

>  <r_i_glide_energy>
-54.6681

>  <r_i_glide_einternal>
7.18805

>  <r_i_glide_emodel>
-78.441

>  <r_glide_XP_HBond>
-1.30592

>  <i_i_glide_confnum>
1

>  <i_i_glide_posenum>
1

>  <r_i_glide_eff_state_penalty>
1.7443

>  <i_glide_XP_PoseRank>
1

$$$$
