BACE_8.smi:1
 OpenBabel09291822493D
Structure written by MMmdl.
 77 79  0  0  1  0  0  0  0  0999 V2000
   29.8707   45.6752  -10.0113 C   0  0  0  0  0  0  0  0  0  0  0  0
   29.7566   44.3521   -9.2387 C   0  0  0  0  0  0  0  0  0  0  0  0
   31.1338   43.8181   -8.8131 C   0  0  0  0  0  0  0  0  0  0  0  0
   28.9613   43.3197  -10.0275 C   0  0  0  0  0  0  0  0  0  0  0  0
   29.5260   42.6759  -11.1508 C   0  0  0  0  0  0  0  0  0  0  0  0
   28.7726   41.7424  -11.8880 C   0  0  0  0  0  0  0  0  0  0  0  0
   27.4467   41.4532  -11.5142 C   0  0  0  0  0  0  0  0  0  0  0  0
   26.8737   42.0915  -10.3954 C   0  0  0  0  0  0  0  0  0  0  0  0
   25.4300   41.8160  -10.0171 C   0  0  0  0  0  0  0  0  0  0  0  0
   24.4851   42.5483  -10.8580 N   0  0  0  0  0  0  0  0  0  0  0  0
   23.1823   42.7735  -10.2344 C   0  0  0  0  0  0  0  0  0  0  0  0
   22.2844   41.5231  -10.3288 C   0  0  1  0  0  0  0  0  0  0  0  0
   22.7087   40.6288   -9.3187 O   0  0  0  0  0  0  0  0  0  0  0  0
   20.7843   41.8547  -10.1177 C   0  0  2  0  0  0  0  0  0  0  0  0
   19.9911   40.8044   -9.2863 C   0  0  0  0  0  0  0  0  0  0  0  0
   20.0057   39.3331   -9.7777 C   0  0  2  0  0  0  0  0  0  0  0  0
   19.0749   39.0808  -10.9777 C   0  0  0  0  0  0  0  0  0  0  0  0
   19.7561   38.3293   -8.6242 C   0  0  0  0  0  0  0  0  0  0  0  0
   18.3047   38.1719   -8.1340 C   0  0  0  0  0  0  0  0  0  0  0  0
   17.7802   39.3994   -7.6569 O   0  0  0  0  0  0  0  0  0  0  0  0
   16.5072   39.2586   -7.0405 C   0  0  0  0  0  0  0  0  0  0  0  0
   15.7323   40.5751   -7.1812 C   0  0  0  0  0  0  0  0  0  0  0  0
   15.3691   40.8544   -8.6487 C   0  0  0  0  0  0  0  0  0  0  0  0
   14.6169   42.1790   -8.8945 C   0  0  0  0  0  0  0  0  0  0  0  0
   15.3274   43.3714   -8.4448 N   0  0  0  0  0  0  0  0  0  0  0  0
   16.5446   43.7868   -9.0026 C   0  0  0  0  0  0  0  0  0  0  0  0
   17.1086   43.1853  -10.1504 C   0  0  0  0  0  0  0  0  0  0  0  0
   18.3955   43.5829  -10.5599 C   0  0  0  0  0  0  0  0  0  0  0  0
   19.0264   44.6412   -9.8744 C   0  0  0  0  0  0  0  0  0  0  0  0
   18.3666   45.2170   -8.7715 C   0  0  0  0  0  0  0  0  0  0  0  0
   19.1356   46.5047   -7.9199 Cl  0  0  0  0  0  0  0  0  0  0  0  0
   17.1608   44.7888   -8.3386 N   0  0  0  0  0  0  0  0  0  0  0  0
   19.0698   42.8725  -11.6931 C   0  0  0  0  0  0  0  0  0  0  0  0
   18.6111   42.9558  -12.8301 O   0  0  0  0  0  0  0  0  0  0  0  0
   20.1511   42.1195  -11.4154 N   0  0  0  0  0  0  0  0  0  0  0  0
   27.6358   43.0156   -9.6508 C   0  0  0  0  0  0  0  0  0  0  0  0
   22.4189   41.0506  -11.3023 H   0  0  0  0  0  0  0  0  0  0  0  0
   20.7749   42.7743   -9.5356 H   0  0  0  0  0  0  0  0  0  0  0  0
   21.0167   39.1091  -10.1137 H   0  0  0  0  0  0  0  0  0  0  0  0
   28.8842   46.0750  -10.2497 H   0  0  0  0  0  0  0  0  0  0  0  0
   30.4132   45.5472  -10.9485 H   0  0  0  0  0  0  0  0  0  0  0  0
   30.3969   46.4283   -9.4243 H   0  0  0  0  0  0  0  0  0  0  0  0
   29.2037   44.5638   -8.3224 H   0  0  0  0  0  0  0  0  0  0  0  0
   31.0347   42.9038   -8.2270 H   0  0  0  0  0  0  0  0  0  0  0  0
   31.6616   44.5470   -8.1973 H   0  0  0  0  0  0  0  0  0  0  0  0
   31.7669   43.5964   -9.6726 H   0  0  0  0  0  0  0  0  0  0  0  0
   30.5371   42.8997  -11.4573 H   0  0  0  0  0  0  0  0  0  0  0  0
   29.2095   41.2555  -12.7473 H   0  0  0  0  0  0  0  0  0  0  0  0
   26.8680   40.7484  -12.0930 H   0  0  0  0  0  0  0  0  0  0  0  0
   25.2555   40.7452  -10.1260 H   0  0  0  0  0  0  0  0  0  0  0  0
   25.2666   42.0454   -8.9633 H   0  0  0  0  0  0  0  0  0  0  0  0
   24.3671   42.0712  -11.7464 H   0  0  0  0  0  0  0  0  0  0  0  0
   23.2979   43.0856   -9.1954 H   0  0  0  0  0  0  0  0  0  0  0  0
   22.6950   43.6056  -10.7401 H   0  0  0  0  0  0  0  0  0  0  0  0
   23.5502   40.2765   -9.5654 H   0  0  0  0  0  0  0  0  0  0  0  0
   20.3906   40.8327   -8.2724 H   0  0  0  0  0  0  0  0  0  0  0  0
   18.9586   41.1343   -9.1755 H   0  0  0  0  0  0  0  0  0  0  0  0
   18.0531   39.3965  -10.7644 H   0  0  0  0  0  0  0  0  0  0  0  0
   19.0502   38.0224  -11.2382 H   0  0  0  0  0  0  0  0  0  0  0  0
   19.4084   39.6169  -11.8649 H   0  0  0  0  0  0  0  0  0  0  0  0
   20.0966   37.3465   -8.9520 H   0  0  0  0  0  0  0  0  0  0  0  0
   20.3941   38.5814   -7.7763 H   0  0  0  0  0  0  0  0  0  0  0  0
   17.6719   37.7865   -8.9345 H   0  0  0  0  0  0  0  0  0  0  0  0
   18.2827   37.4329   -7.3314 H   0  0  0  0  0  0  0  0  0  0  0  0
   15.9283   38.4517   -7.4937 H   0  0  0  0  0  0  0  0  0  0  0  0
   16.6481   39.0016   -5.9900 H   0  0  0  0  0  0  0  0  0  0  0  0
   14.8200   40.5276   -6.5859 H   0  0  0  0  0  0  0  0  0  0  0  0
   16.3296   41.3907   -6.7721 H   0  0  0  0  0  0  0  0  0  0  0  0
   16.2749   40.8084   -9.2495 H   0  0  0  0  0  0  0  0  0  0  0  0
   14.7451   40.0388   -9.0152 H   0  0  0  0  0  0  0  0  0  0  0  0
   14.3810   42.2839   -9.9540 H   0  0  0  0  0  0  0  0  0  0  0  0
   13.6600   42.1496   -8.3732 H   0  0  0  0  0  0  0  0  0  0  0  0
   15.0033   43.8256   -7.6029 H   0  0  0  0  0  0  0  0  0  0  0  0
   16.6015   42.3985  -10.6880 H   0  0  0  0  0  0  0  0  0  0  0  0
   20.0029   44.9936  -10.1746 H   0  0  0  0  0  0  0  0  0  0  0  0
   20.5778   41.6538  -12.2032 H   0  0  0  0  0  0  0  0  0  0  0  0
   27.1891   43.5100   -8.8004 H   0  0  0  0  0  0  0  0  0  0  0  0
  1  2  1  0  0  0  0
  1 40  1  0  0  0  0
  1 41  1  0  0  0  0
  1 42  1  0  0  0  0
  2  3  1  0  0  0  0
  2  4  1  0  0  0  0
  2 43  1  0  0  0  0
  3 44  1  0  0  0  0
  3 45  1  0  0  0  0
  3 46  1  0  0  0  0
  4 36  1  0  0  0  0
  4  5  2  0  0  0  0
  5  6  1  0  0  0  0
  5 47  1  0  0  0  0
  6  7  2  0  0  0  0
  6 48  1  0  0  0  0
  7  8  1  0  0  0  0
  7 49  1  0  0  0  0
  8  9  1  0  0  0  0
  8 36  2  0  0  0  0
  9 10  1  0  0  0  0
  9 50  1  0  0  0  0
  9 51  1  0  0  0  0
 10 11  1  0  0  0  0
 10 52  1  0  0  0  0
 11 12  1  0  0  0  0
 11 53  1  0  0  0  0
 11 54  1  0  0  0  0
 12 37  1  6  0  0  0
 12 13  1  0  0  0  0
 12 14  1  0  0  0  0
 13 55  1  0  0  0  0
 14 38  1  1  0  0  0
 14 35  1  0  0  0  0
 14 15  1  0  0  0  0
 15 16  1  0  0  0  0
 15 56  1  0  0  0  0
 15 57  1  0  0  0  0
 16 39  1  6  0  0  0
 16 17  1  0  0  0  0
 16 18  1  0  0  0  0
 17 58  1  0  0  0  0
 17 59  1  0  0  0  0
 17 60  1  0  0  0  0
 18 19  1  0  0  0  0
 18 61  1  0  0  0  0
 18 62  1  0  0  0  0
 19 20  1  0  0  0  0
 19 63  1  0  0  0  0
 19 64  1  0  0  0  0
 20 21  1  0  0  0  0
 21 22  1  0  0  0  0
 21 65  1  0  0  0  0
 21 66  1  0  0  0  0
 22 23  1  0  0  0  0
 22 67  1  0  0  0  0
 22 68  1  0  0  0  0
 23 24  1  0  0  0  0
 23 69  1  0  0  0  0
 23 70  1  0  0  0  0
 24 25  1  0  0  0  0
 24 71  1  0  0  0  0
 24 72  1  0  0  0  0
 25 26  1  0  0  0  0
 25 73  1  0  0  0  0
 26 32  1  0  0  0  0
 26 27  2  0  0  0  0
 27 28  1  0  0  0  0
 27 74  1  0  0  0  0
 28 29  2  0  0  0  0
 28 33  1  0  0  0  0
 29 30  1  0  0  0  0
 29 75  1  0  0  0  0
 30 31  1  0  0  0  0
 30 32  2  0  0  0  0
 33 34  2  0  0  0  0
 33 35  1  0  0  0  0
 35 76  1  0  0  0  0
 36 77  1  0  0  0  0
M  END
>  <s_m_source_file>
BACE_8.smi

>  <i_m_source_file_index>
1

>  <i_lp_mmshare_version>
42013

>  <i_f3d_flags>
0

>  <s_epik_input>
W0NIM11bQ0hdKFtDSDNdKWMxW2NIXVtjSF1bY0hdYyhbY0hdMSlbQ0gyXVtOSF1bQ0gyXVtDQEBIXShbT0hdKVtDQEBIXShbTkhdQyg9TyljKFtjSF1jMjMpW2NIXWMoQ2wpbjMpW0NIMl1bQ0BIXShbQ0gzXSlbQ0gyXVtDSDJdT1tDSDJdW0NIMl1bQ0gyXVtDSDJdW05IXTI=

>  <s_epik_cmdline>
J2VwaWtfcHl0aG9uJywgJy1waCcsICc3LjAnLCAnLXRuJywgJzgnLCAnLW1hJywgJzIwMCcsICctaW1hZScsICc8aW5maWxlLm1hZT4nLCAnLW9tYWUnLCAnPG91dGZpbGUubWFlPic=

>  <r_lp_tautomer_probability>
1

>  <r_epik_Ionization_Penalty>
2.0939

>  <r_epik_Ionization_Penalty_Charging>
0.0000

>  <r_epik_Ionization_Penalty_Neutral>
2.0939

>  <r_epik_State_Penalty>
2.2295

>  <r_epik_Charging_Adjusted_Penalty>
2.2295

>  <i_epik_Tot_Q>
0

>  <i_epik_Tot_abs_Q>
0

>  <s_lp_Force_Field>
OPLS_2005

>  <r_lp_Energy>
37.0344

>  <b_lp_Chiralities_Consistent>
1

>  <s_lp_Variant>
BACE_8.smi:1-2

>  <chiral flag>
1

>  <version>
0

>  <s_i_glide_gridfile>
second_dock_grid_2

>  <i_i_glide_lignum>
13

>  <i_i_glide_rotatable_bonds>
7

>  <r_i_docking_score>
-1.68768

>  <r_i_glide_ligand_efficiency>
-0.0468799

>  <r_i_glide_ligand_efficiency_sa>
-0.154794

>  <r_i_glide_ligand_efficiency_ln>
-0.368206

>  <r_glide_XP_GScore>
-3.91718

>  <r_i_glide_gscore>
-3.91718

>  <r_i_glide_evdw>
-36.1288

>  <r_i_glide_ecoul>
-7.80091

>  <r_i_glide_energy>
-43.9297

>  <r_i_glide_einternal>
6.32976

>  <r_i_glide_emodel>
-63.0694

>  <r_glide_XP_HBond>
0

>  <i_i_glide_confnum>
1

>  <i_i_glide_posenum>
7

>  <r_i_glide_eff_state_penalty>
2.2295

>  <i_glide_XP_PoseRank>
1

$$$$
