BACE_5.smi:1
 OpenBabel09291822493D
Structure written by MMmdl.
 80 81  0  0  1  0  0  0  0  0999 V2000
   21.4612   42.6826   -2.4253 C   0  0  0  0  0  0  0  0  0  0  0  0
   22.1544   43.3489   -3.6221 C   0  0  0  0  0  0  0  0  0  0  0  0
   22.9191   42.3816   -4.5438 C   0  0  0  0  0  0  0  0  0  0  0  0
   22.0527   41.4113   -5.2853 C   0  0  0  0  0  0  0  0  0  0  0  0
   21.0835   40.5500   -4.8578 C   0  0  0  0  0  0  0  0  0  0  0  0
   20.6125   39.9225   -6.0420 C   0  0  0  0  0  0  0  0  0  0  0  0
   19.5111   38.9119   -6.1528 C   0  0  0  0  0  0  0  0  0  0  0  0
   18.7180   39.1119   -7.3698 N   0  3  0  0  0  0  0  0  0  0  0  0
   17.6014   38.1568   -7.5047 C   0  0  0  0  0  0  0  0  0  0  0  0
   17.0228   38.1487   -8.9323 C   0  0  1  0  0  0  0  0  0  0  0  0
   16.0618   37.1116   -8.9727 O   0  0  0  0  0  0  0  0  0  0  0  0
   16.4544   39.5350   -9.3705 C   0  0  2  0  0  0  0  0  0  0  0  0
   14.9693   39.5413   -9.7988 C   0  0  0  0  0  0  0  0  0  0  0  0
   14.3338   40.9101  -10.1694 C   0  0  2  0  0  0  0  0  0  0  0  0
   14.6623   41.3745  -11.6018 C   0  0  0  0  0  0  0  0  0  0  0  0
   14.5958   42.0193   -9.1308 C   0  0  0  0  0  0  0  0  0  0  0  0
   13.6969   43.2497   -9.3491 C   0  0  0  0  0  0  0  0  0  0  0  0
   13.8227   44.3308   -8.2671 C   0  0  0  0  0  0  0  0  0  0  0  0
   15.2047   45.0109   -8.1744 C   0  0  0  0  0  0  0  0  0  0  0  0
   15.6692   45.7205   -9.4657 C   0  0  0  0  0  0  0  0  0  0  0  0
   16.9001   45.0680  -10.1087 C   0  0  0  0  0  0  0  0  0  0  0  0
   17.1308   45.6490  -11.3889 O   0  0  0  0  0  0  0  0  0  0  0  0
   18.3483   45.2663  -12.0368 C   0  0  0  0  0  0  0  0  0  0  0  0
   18.3692   43.7516  -12.3427 C   0  0  0  0  0  0  0  0  0  0  0  0
   17.6243   43.3500  -13.2398 O   0  0  0  0  0  0  0  0  0  0  0  0
   19.1405   42.9122  -11.6025 N   0  0  0  0  0  0  0  0  0  0  0  0
   20.1799   43.4308  -10.6972 C   0  0  0  0  0  0  0  0  0  0  0  0
   18.9123   41.4457  -11.6397 C   0  0  1  0  0  0  0  0  0  0  0  0
   20.2080   40.6705  -11.9562 C   0  0  0  0  0  0  0  0  0  0  0  0
   18.2733   40.9469  -10.3299 C   0  0  0  0  0  0  0  0  0  0  0  0
   18.6584   41.3499   -9.2329 O   0  0  0  0  0  0  0  0  0  0  0  0
   17.2772   40.0595  -10.4576 N   0  0  0  0  0  0  0  0  0  0  0  0
   21.2730   40.3143   -7.1234 N   0  0  0  0  0  0  0  0  0  0  0  0
   22.1457   41.2241   -6.6479 N   0  0  0  0  0  0  0  0  0  0  0  0
   17.8100   37.8378   -9.6228 H   0  0  0  0  0  0  0  0  0  0  0  0
   16.5157   40.2091   -8.5142 H   0  0  0  0  0  0  0  0  0  0  0  0
   13.2611   40.7247  -10.1441 H   0  0  0  0  0  0  0  0  0  0  0  0
   18.2184   41.1874  -12.4401 H   0  0  0  0  0  0  0  0  0  0  0  0
   21.2977   43.3971   -1.6195 H   0  0  0  0  0  0  0  0  0  0  0  0
   22.0589   41.8593   -2.0394 H   0  0  0  0  0  0  0  0  0  0  0  0
   20.4808   42.2938   -2.7011 H   0  0  0  0  0  0  0  0  0  0  0  0
   22.8598   44.0792   -3.2306 H   0  0  0  0  0  0  0  0  0  0  0  0
   21.4260   43.9168   -4.2004 H   0  0  0  0  0  0  0  0  0  0  0  0
   23.6545   41.8294   -3.9574 H   0  0  0  0  0  0  0  0  0  0  0  0
   23.4957   42.9665   -5.2599 H   0  0  0  0  0  0  0  0  0  0  0  0
   20.7354   40.3966   -3.8463 H   0  0  0  0  0  0  0  0  0  0  0  0
   18.8561   38.9576   -5.2793 H   0  0  0  0  0  0  0  0  0  0  0  0
   19.9393   37.9132   -6.1947 H   0  0  0  0  0  0  0  0  0  0  0  0
   19.3519   39.0268   -8.1513 H   0  0  0  0  0  0  0  0  0  0  0  0
   16.8322   38.4098   -6.7739 H   0  0  0  0  0  0  0  0  0  0  0  0
   17.9657   37.1565   -7.2593 H   0  0  0  0  0  0  0  0  0  0  0  0
   15.6725   37.0219   -8.1104 H   0  0  0  0  0  0  0  0  0  0  0  0
   14.8597   38.8543  -10.6340 H   0  0  0  0  0  0  0  0  0  0  0  0
   14.3787   39.1191   -8.9842 H   0  0  0  0  0  0  0  0  0  0  0  0
   13.9230   42.0693  -12.0065 H   0  0  0  0  0  0  0  0  0  0  0  0
   14.6913   40.5377  -12.2899 H   0  0  0  0  0  0  0  0  0  0  0  0
   15.6320   41.8676  -11.6400 H   0  0  0  0  0  0  0  0  0  0  0  0
   14.4394   41.6245   -8.1257 H   0  0  0  0  0  0  0  0  0  0  0  0
   15.6434   42.3125   -9.1642 H   0  0  0  0  0  0  0  0  0  0  0  0
   12.6577   42.9252   -9.3808 H   0  0  0  0  0  0  0  0  0  0  0  0
   13.8954   43.6851  -10.3259 H   0  0  0  0  0  0  0  0  0  0  0  0
   13.0561   45.0823   -8.4402 H   0  0  0  0  0  0  0  0  0  0  0  0
   13.5647   43.8859   -7.3076 H   0  0  0  0  0  0  0  0  0  0  0  0
   15.9511   44.2859   -7.8498 H   0  0  0  0  0  0  0  0  0  0  0  0
   15.1627   45.7440   -7.3709 H   0  0  0  0  0  0  0  0  0  0  0  0
   14.8610   45.7499  -10.1959 H   0  0  0  0  0  0  0  0  0  0  0  0
   15.8992   46.7624   -9.2440 H   0  0  0  0  0  0  0  0  0  0  0  0
   16.7326   43.9964  -10.2093 H   0  0  0  0  0  0  0  0  0  0  0  0
   17.7675   45.2109   -9.4622 H   0  0  0  0  0  0  0  0  0  0  0  0
   19.2003   45.6233  -11.4591 H   0  0  0  0  0  0  0  0  0  0  0  0
   18.3971   45.8008  -12.9876 H   0  0  0  0  0  0  0  0  0  0  0  0
   20.7588   42.6480  -10.2097 H   0  0  0  0  0  0  0  0  0  0  0  0
   19.7436   44.0259   -9.8952 H   0  0  0  0  0  0  0  0  0  0  0  0
   20.8970   44.0471  -11.2423 H   0  0  0  0  0  0  0  0  0  0  0  0
   19.9846   39.6225  -12.1638 H   0  0  0  0  0  0  0  0  0  0  0  0
   20.9230   40.6763  -11.1329 H   0  0  0  0  0  0  0  0  0  0  0  0
   20.7054   41.0727  -12.8387 H   0  0  0  0  0  0  0  0  0  0  0  0
   17.0401   39.7515  -11.3889 H   0  0  0  0  0  0  0  0  0  0  0  0
   22.7932   41.7052   -7.2583 H   0  0  0  0  0  0  0  0  0  0  0  0
   18.3657   40.0605   -7.3722 H   0  0  0  0  0  0  0  0  0  0  0  0
  1  2  1  0  0  0  0
  1 39  1  0  0  0  0
  1 40  1  0  0  0  0
  1 41  1  0  0  0  0
  2  3  1  0  0  0  0
  2 42  1  0  0  0  0
  2 43  1  0  0  0  0
  3  4  1  0  0  0  0
  3 44  1  0  0  0  0
  3 45  1  0  0  0  0
  4 34  1  0  0  0  0
  4  5  2  0  0  0  0
  5  6  1  0  0  0  0
  5 46  1  0  0  0  0
  6  7  1  0  0  0  0
  6 33  2  0  0  0  0
  7  8  1  0  0  0  0
  7 47  1  0  0  0  0
  7 48  1  0  0  0  0
  8  9  1  0  0  0  0
  8 49  1  0  0  0  0
  8 80  1  0  0  0  0
  9 10  1  0  0  0  0
  9 50  1  0  0  0  0
  9 51  1  0  0  0  0
 10 35  1  6  0  0  0
 10 11  1  0  0  0  0
 10 12  1  0  0  0  0
 11 52  1  0  0  0  0
 12 36  1  1  0  0  0
 12 32  1  0  0  0  0
 12 13  1  0  0  0  0
 13 14  1  0  0  0  0
 13 53  1  0  0  0  0
 13 54  1  0  0  0  0
 14 37  1  1  0  0  0
 14 15  1  0  0  0  0
 14 16  1  0  0  0  0
 15 55  1  0  0  0  0
 15 56  1  0  0  0  0
 15 57  1  0  0  0  0
 16 17  1  0  0  0  0
 16 58  1  0  0  0  0
 16 59  1  0  0  0  0
 17 18  1  0  0  0  0
 17 60  1  0  0  0  0
 17 61  1  0  0  0  0
 18 19  1  0  0  0  0
 18 62  1  0  0  0  0
 18 63  1  0  0  0  0
 19 20  1  0  0  0  0
 19 64  1  0  0  0  0
 19 65  1  0  0  0  0
 20 21  1  0  0  0  0
 20 66  1  0  0  0  0
 20 67  1  0  0  0  0
 21 22  1  0  0  0  0
 21 68  1  0  0  0  0
 21 69  1  0  0  0  0
 22 23  1  0  0  0  0
 23 24  1  0  0  0  0
 23 70  1  0  0  0  0
 23 71  1  0  0  0  0
 24 25  2  0  0  0  0
 24 26  1  0  0  0  0
 26 27  1  0  0  0  0
 26 28  1  0  0  0  0
 27 72  1  0  0  0  0
 27 73  1  0  0  0  0
 27 74  1  0  0  0  0
 28 38  1  6  0  0  0
 28 29  1  0  0  0  0
 28 30  1  0  0  0  0
 29 75  1  0  0  0  0
 29 76  1  0  0  0  0
 29 77  1  0  0  0  0
 30 31  2  0  0  0  0
 30 32  1  0  0  0  0
 32 78  1  0  0  0  0
 33 34  1  0  0  0  0
 34 79  1  0  0  0  0
M  CHG  1   8   1
M  END
>  <s_m_source_file>
BACE_5.smi

>  <i_m_source_file_index>
1

>  <i_lp_mmshare_version>
42013

>  <i_f3d_flags>
0

>  <s_epik_input>
W0NIM11bQ0gyXVtDSDJdYzFbY0hdYyhuW25IXTEpW0NIMl1bTkhdW0NIMl1bQ0BASF0oW09IXSlbQ0BASF0yW0NIMl1bQ0BIXShbQ0gzXSlbQ0gyXVtDSDJdW0NIMl1bQ0gyXVtDSDJdW0NIMl1PW0NIMl1DKD1PKU4oW0NIM10pW0NAQEhdKFtDSDNdKUMoPU8pW05IXTI=

>  <s_epik_cmdline>
J2VwaWtfcHl0aG9uJywgJy1waCcsICc3LjAnLCAnLXRuJywgJzgnLCAnLW1hJywgJzIwMCcsICctaW1hZScsICc8aW5maWxlLm1hZT4nLCAnLW9tYWUnLCAnPG91dGZpbGUubWFlPic=

>  <r_lp_tautomer_probability>
0.5

>  <r_epik_Ionization_Penalty>
0.0566

>  <r_epik_Ionization_Penalty_Charging>
0.0566

>  <r_epik_Ionization_Penalty_Neutral>
0.0000

>  <r_epik_State_Penalty>
0.4228

>  <r_epik_Charging_Adjusted_Penalty>
0.479388

>  <i_epik_Tot_Q>
1

>  <i_epik_Tot_abs_Q>
1

>  <s_lp_Force_Field>
OPLS_2005

>  <r_lp_Energy>
33.693

>  <b_lp_Chiralities_Consistent>
1

>  <s_lp_Variant>
BACE_5.smi:1-1

>  <chiral flag>
1

>  <version>
0

>  <s_i_glide_gridfile>
second_dock_grid_2

>  <i_i_glide_lignum>
4

>  <i_i_glide_rotatable_bonds>
8

>  <r_i_docking_score>
-5.40885

>  <r_i_glide_ligand_efficiency>
-0.159084

>  <r_i_glide_ligand_efficiency_sa>
-0.51537

>  <r_i_glide_ligand_efficiency_ln>
-1.19497

>  <r_glide_XP_GScore>
-5.83165

>  <r_i_glide_gscore>
-5.83165

>  <r_i_glide_evdw>
-38.7552

>  <r_i_glide_ecoul>
-10.8836

>  <r_i_glide_energy>
-49.6388

>  <r_i_glide_einternal>
10.306

>  <r_i_glide_emodel>
-61.3123

>  <r_glide_XP_HBond>
-2.08544

>  <i_i_glide_confnum>
1

>  <i_i_glide_posenum>
1

>  <r_i_glide_eff_state_penalty>
0.4228

>  <i_glide_XP_PoseRank>
1

$$$$
