BACE_21.smi:1
 OpenBabel09291822493D
Structure written by MMmdl.
 83 84  0  0  1  0  0  0  0  0999 V2000
   15.5486   45.3703   -8.3960 C   0  0  0  0  0  0  0  0  0  0  0  0
   16.4542   44.1351   -8.3029 C   0  0  0  0  0  0  0  0  0  0  0  0
   17.7880   44.3573   -9.0281 C   0  0  0  0  0  0  0  0  0  0  0  0
   15.7445   42.8775   -8.7891 C   0  0  0  0  0  0  0  0  0  0  0  0
   15.5072   41.8229   -7.8851 C   0  0  0  0  0  0  0  0  0  0  0  0
   14.8600   40.6430   -8.2982 C   0  0  0  0  0  0  0  0  0  0  0  0
   14.6272   39.5241   -7.2892 C   0  0  0  0  0  0  0  0  0  0  0  0
   15.7412   38.5536   -7.2913 N   0  3  0  0  0  0  0  0  0  0  0  0
   17.0883   39.1570   -7.2695 C   0  0  0  0  0  0  0  0  0  0  0  0
   18.2170   38.1286   -7.1626 C   0  0  1  0  0  0  0  0  0  0  0  0
   17.9267   37.0591   -8.0402 O   0  0  0  0  0  0  0  0  0  0  0  0
   19.6222   38.7232   -7.4595 C   0  0  2  0  0  0  0  0  0  0  0  0
   20.0211   39.7663   -6.3867 C   0  0  0  0  0  0  0  0  0  0  0  0
   21.4861   40.2563   -6.4412 C   0  0  2  0  0  0  0  0  0  0  0  0
   22.0890   40.3187   -5.0256 C   0  0  0  0  0  0  0  0  0  0  0  0
   21.5573   41.6217   -7.1516 C   0  0  0  0  0  0  0  0  0  0  0  0
   22.9756   42.1314   -7.4366 C   0  0  0  0  0  0  0  0  0  0  0  0
   22.9177   43.3953   -8.2593 C   0  0  0  0  0  0  0  0  0  0  0  0
   23.3556   43.5025   -9.5219 C   0  0  0  0  0  0  0  0  0  0  0  0
   23.1878   44.7509  -10.3570 C   0  0  0  0  0  0  0  0  0  0  0  0
   22.3169   44.5223  -11.6027 C   0  0  0  0  0  0  0  0  0  0  0  0
   20.9044   43.9642  -11.3190 C   0  0  0  0  0  0  0  0  0  0  0  0
   20.8079   42.4244  -11.4489 C   0  0  0  0  0  0  0  0  0  0  0  0
   19.3709   41.8763  -11.5245 C   0  0  0  0  0  0  0  0  0  0  0  0
   18.4604   42.6726  -11.7641 O   0  0  0  0  0  0  0  0  0  0  0  0
   19.1119   40.5535  -11.3258 N   0  0  0  0  0  0  0  0  0  0  0  0
   17.7044   40.1683  -11.1685 C   0  0  0  0  0  0  0  0  0  0  0  0
   20.0894   39.4379  -11.2444 C   0  0  1  0  0  0  0  0  0  0  0  0
   21.2376   39.5268  -12.2744 C   0  0  0  0  0  0  0  0  0  0  0  0
   20.4498   38.9418   -9.8196 C   0  0  0  0  0  0  0  0  0  0  0  0
   21.3989   38.1769   -9.6469 O   0  0  0  0  0  0  0  0  0  0  0  0
   19.6495   39.3148   -8.8064 N   0  0  0  0  0  0  0  0  0  0  0  0
   14.4561   40.5080   -9.6409 C   0  0  0  0  0  0  0  0  0  0  0  0
   14.6640   41.5650  -10.5468 C   0  0  0  0  0  0  0  0  0  0  0  0
   15.3108   42.7449  -10.1274 C   0  0  0  0  0  0  0  0  0  0  0  0
   18.2185   37.7083   -6.1551 H   0  0  0  0  0  0  0  0  0  0  0  0
   20.3368   37.9012   -7.3954 H   0  0  0  0  0  0  0  0  0  0  0  0
   22.0716   39.5372   -7.0155 H   0  0  0  0  0  0  0  0  0  0  0  0
   19.5407   38.5779  -11.6308 H   0  0  0  0  0  0  0  0  0  0  0  0
   14.6404   45.2311   -7.8101 H   0  0  0  0  0  0  0  0  0  0  0  0
   15.2603   45.5764   -9.4262 H   0  0  0  0  0  0  0  0  0  0  0  0
   16.0589   46.2550   -8.0167 H   0  0  0  0  0  0  0  0  0  0  0  0
   16.6936   43.9899   -7.2475 H   0  0  0  0  0  0  0  0  0  0  0  0
   18.4373   43.4854   -8.9382 H   0  0  0  0  0  0  0  0  0  0  0  0
   18.3246   45.2095   -8.6094 H   0  0  0  0  0  0  0  0  0  0  0  0
   17.6382   44.5551  -10.0892 H   0  0  0  0  0  0  0  0  0  0  0  0
   15.8226   41.9160   -6.8551 H   0  0  0  0  0  0  0  0  0  0  0  0
   14.5228   39.9431   -6.2873 H   0  0  0  0  0  0  0  0  0  0  0  0
   13.6955   39.0023   -7.5098 H   0  0  0  0  0  0  0  0  0  0  0  0
   15.6580   37.9196   -6.4919 H   0  0  0  0  0  0  0  0  0  0  0  0
   17.2242   39.7319   -8.1808 H   0  0  0  0  0  0  0  0  0  0  0  0
   17.1411   39.8503   -6.4402 H   0  0  0  0  0  0  0  0  0  0  0  0
   17.3618   36.4676   -7.5527 H   0  0  0  0  0  0  0  0  0  0  0  0
   19.3507   40.6246   -6.4424 H   0  0  0  0  0  0  0  0  0  0  0  0
   19.8223   39.3501   -5.4023 H   0  0  0  0  0  0  0  0  0  0  0  0
   21.5619   41.0396   -4.4009 H   0  0  0  0  0  0  0  0  0  0  0  0
   23.1410   40.5996   -5.0433 H   0  0  0  0  0  0  0  0  0  0  0  0
   22.0336   39.3495   -4.5322 H   0  0  0  0  0  0  0  0  0  0  0  0
   21.0265   41.5543   -8.1021 H   0  0  0  0  0  0  0  0  0  0  0  0
   21.0180   42.3680   -6.5654 H   0  0  0  0  0  0  0  0  0  0  0  0
   23.4980   42.3631   -6.5097 H   0  0  0  0  0  0  0  0  0  0  0  0
   23.5557   41.3698   -7.9609 H   0  0  0  0  0  0  0  0  0  0  0  0
   22.4370   44.2403   -7.7883 H   0  0  0  0  0  0  0  0  0  0  0  0
   23.8156   42.6534  -10.0081 H   0  0  0  0  0  0  0  0  0  0  0  0
   22.7489   45.5401   -9.7457 H   0  0  0  0  0  0  0  0  0  0  0  0
   24.1739   45.1046  -10.6545 H   0  0  0  0  0  0  0  0  0  0  0  0
   22.2109   45.4828  -12.1064 H   0  0  0  0  0  0  0  0  0  0  0  0
   22.8439   43.8832  -12.3115 H   0  0  0  0  0  0  0  0  0  0  0  0
   20.5551   44.2864  -10.3387 H   0  0  0  0  0  0  0  0  0  0  0  0
   20.2272   44.4293  -12.0364 H   0  0  0  0  0  0  0  0  0  0  0  0
   21.3158   42.1457  -12.3707 H   0  0  0  0  0  0  0  0  0  0  0  0
   21.3376   41.9458  -10.6249 H   0  0  0  0  0  0  0  0  0  0  0  0
   17.2917   40.6696  -10.2948 H   0  0  0  0  0  0  0  0  0  0  0  0
   17.5571   39.0987  -11.0203 H   0  0  0  0  0  0  0  0  0  0  0  0
   17.1160   40.4705  -12.0360 H   0  0  0  0  0  0  0  0  0  0  0  0
   21.5996   38.5505  -12.5868 H   0  0  0  0  0  0  0  0  0  0  0  0
   22.0829   40.0785  -11.8749 H   0  0  0  0  0  0  0  0  0  0  0  0
   20.9128   40.0117  -13.1954 H   0  0  0  0  0  0  0  0  0  0  0  0
   18.9132   39.9682   -9.0288 H   0  0  0  0  0  0  0  0  0  0  0  0
   13.9478   39.6115   -9.9686 H   0  0  0  0  0  0  0  0  0  0  0  0
   14.3257   41.4680  -11.5670 H   0  0  0  0  0  0  0  0  0  0  0  0
   15.4789   43.5447  -10.8328 H   0  0  0  0  0  0  0  0  0  0  0  0
   15.6777   37.9883   -8.1235 H   0  0  0  0  0  0  0  0  0  0  0  0
  1  2  1  0  0  0  0
  1 40  1  0  0  0  0
  1 41  1  0  0  0  0
  1 42  1  0  0  0  0
  2  3  1  0  0  0  0
  2  4  1  0  0  0  0
  2 43  1  0  0  0  0
  3 44  1  0  0  0  0
  3 45  1  0  0  0  0
  3 46  1  0  0  0  0
  4 35  1  0  0  0  0
  4  5  2  0  0  0  0
  5  6  1  0  0  0  0
  5 47  1  0  0  0  0
  6  7  1  0  0  0  0
  6 33  2  0  0  0  0
  7  8  1  0  0  0  0
  7 48  1  0  0  0  0
  7 49  1  0  0  0  0
  8  9  1  0  0  0  0
  8 50  1  0  0  0  0
  8 83  1  0  0  0  0
  9 10  1  0  0  0  0
  9 51  1  0  0  0  0
  9 52  1  0  0  0  0
 10 36  1  1  0  0  0
 10 11  1  0  0  0  0
 10 12  1  0  0  0  0
 11 53  1  0  0  0  0
 12 37  1  1  0  0  0
 12 32  1  0  0  0  0
 12 13  1  0  0  0  0
 13 14  1  0  0  0  0
 13 54  1  0  0  0  0
 13 55  1  0  0  0  0
 14 38  1  6  0  0  0
 14 15  1  0  0  0  0
 14 16  1  0  0  0  0
 15 56  1  0  0  0  0
 15 57  1  0  0  0  0
 15 58  1  0  0  0  0
 16 17  1  0  0  0  0
 16 59  1  0  0  0  0
 16 60  1  0  0  0  0
 17 18  1  0  0  0  0
 17 61  1  0  0  0  0
 17 62  1  0  0  0  0
 18 19  2  0  0  0  0
 18 63  1  0  0  0  0
 19 20  1  0  0  0  0
 19 64  1  0  0  0  0
 20 21  1  0  0  0  0
 20 65  1  0  0  0  0
 20 66  1  0  0  0  0
 21 22  1  0  0  0  0
 21 67  1  0  0  0  0
 21 68  1  0  0  0  0
 22 23  1  0  0  0  0
 22 69  1  0  0  0  0
 22 70  1  0  0  0  0
 23 24  1  0  0  0  0
 23 71  1  0  0  0  0
 23 72  1  0  0  0  0
 24 25  2  0  0  0  0
 24 26  1  0  0  0  0
 26 27  1  0  0  0  0
 26 28  1  0  0  0  0
 27 73  1  0  0  0  0
 27 74  1  0  0  0  0
 27 75  1  0  0  0  0
 28 39  1  6  0  0  0
 28 29  1  0  0  0  0
 28 30  1  0  0  0  0
 29 76  1  0  0  0  0
 29 77  1  0  0  0  0
 29 78  1  0  0  0  0
 30 31  2  0  0  0  0
 30 32  1  0  0  0  0
 32 79  1  0  0  0  0
 33 34  1  0  0  0  0
 33 80  1  0  0  0  0
 34 35  2  0  0  0  0
 34 81  1  0  0  0  0
 35 82  1  0  0  0  0
M  CHG  1   8   1
M  END
>  <s_m_source_file>
BACE_21.smi

>  <i_m_source_file_index>
1

>  <i_lp_mmshare_version>
42013

>  <i_f3d_flags>
0

>  <s_epik_input>
W0NIM11bQ0hdKFtDSDNdKWMxW2NIXWMoW2NIXVtjSF1bY0hdMSlbQ0gyXVtOSF1bQ0gyXVtDQEBIXShbT0hdKVtDQEBIXTJbQ0gyXVtDQEhdKFtDSDNdKVtDSDJdW0NIMl0vW0NIXT1bQ0hdL1tDSDJdW0NIMl1bQ0gyXVtDSDJdQyg9TylOKFtDSDNdKVtDQEBIXShbQ0gzXSlDKD1PKVtOSF0y

>  <s_epik_cmdline>
J2VwaWtfcHl0aG9uJywgJy1waCcsICc3LjAnLCAnLXRuJywgJzgnLCAnLW1hJywgJzIwMCcsICctaW1hZScsICc8aW5maWxlLm1hZT4nLCAnLW9tYWUnLCAnPG91dGZpbGUubWFlPic=

>  <r_epik_Ionization_Penalty>
0.0182

>  <r_epik_Ionization_Penalty_Charging>
0.0182

>  <r_epik_Ionization_Penalty_Neutral>
0.0000

>  <r_epik_State_Penalty>
0.0145

>  <r_epik_Charging_Adjusted_Penalty>
0.0327167

>  <i_epik_Tot_Q>
1

>  <i_epik_Tot_abs_Q>
1

>  <s_lp_Force_Field>
OPLS_2005

>  <r_lp_Energy>
31.9362

>  <b_lp_Chiralities_Consistent>
1

>  <s_lp_Variant>
BACE_21.smi:1-1

>  <chiral flag>
1

>  <version>
0

>  <s_i_glide_gridfile>
second_dock_grid_2

>  <i_i_glide_lignum>
32

>  <i_i_glide_rotatable_bonds>
7

>  <r_i_docking_score>
-6.43675

>  <r_i_glide_ligand_efficiency>
-0.183907

>  <r_i_glide_ligand_efficiency_sa>
-0.601572

>  <r_i_glide_ligand_efficiency_ln>
-1.41301

>  <r_glide_XP_GScore>
-6.45125

>  <r_i_glide_gscore>
-6.45125

>  <r_i_glide_evdw>
-36.1222

>  <r_i_glide_ecoul>
-14.1035

>  <r_i_glide_energy>
-50.2257

>  <r_i_glide_einternal>
8.0811

>  <r_i_glide_emodel>
-67.2913

>  <r_glide_XP_HBond>
-0.35

>  <i_i_glide_confnum>
1

>  <i_i_glide_posenum>
11

>  <r_i_glide_eff_state_penalty>
0.0145

>  <i_glide_XP_PoseRank>
1

$$$$
