BACE_54.smi:1
 OpenBabel09291822493D
Structure written by MMmdl.
 76 78  0  0  1  0  0  0  0  0999 V2000
   17.1203   38.9325   -7.2140 C   0  0  0  0  0  0  0  0  0  0  0  0
   16.9304   38.5755   -8.6973 C   0  0  0  0  0  0  0  0  0  0  0  0
   16.9013   37.0583   -8.9481 C   0  0  0  0  0  0  0  0  0  0  0  0
   17.9786   39.2569   -9.5642 C   0  0  0  0  0  0  0  0  0  0  0  0
   17.5756   40.2240  -10.5089 C   0  0  0  0  0  0  0  0  0  0  0  0
   18.5278   40.8449  -11.3387 C   0  0  0  0  0  0  0  0  0  0  0  0
   19.8857   40.4974  -11.2291 C   0  0  0  0  0  0  0  0  0  0  0  0
   20.3045   39.5459  -10.2742 C   0  0  0  0  0  0  0  0  0  0  0  0
   21.7738   39.1848  -10.1589 C   0  0  0  0  0  0  0  0  0  0  0  0
   22.4574   39.7523   -8.9923 N   0  0  0  0  0  0  0  0  0  0  0  0
   22.5084   41.2166   -8.9385 C   0  0  0  0  0  0  0  0  0  0  0  0
   23.4714   41.8531   -9.9731 C   0  0  1  0  0  0  0  0  0  0  0  0
   22.8594   41.9088  -11.2400 O   0  0  0  0  0  0  0  0  0  0  0  0
   23.9255   43.3089   -9.6467 C   0  0  2  0  0  0  0  0  0  0  0  0
   25.2075   43.2779   -8.7784 C   0  0  0  0  0  0  0  0  0  0  0  0
   26.0232   44.5883   -8.6617 C   0  0  2  0  0  0  0  0  0  0  0  0
   27.3828   44.3110   -7.9991 C   0  0  0  0  0  0  0  0  0  0  0  0
   25.3040   45.7704   -7.9738 C   0  0  0  0  0  0  0  0  0  0  0  0
   24.7965   45.5126   -6.5451 C   0  0  0  0  0  0  0  0  0  0  0  0
   24.1050   46.6767   -6.1314 O   0  0  0  0  0  0  0  0  0  0  0  0
   23.3548   46.4977   -4.9429 C   0  0  0  0  0  0  0  0  0  0  0  0
   22.6223   47.8096   -4.6361 C   0  0  0  0  0  0  0  0  0  0  0  0
   21.5729   48.2308   -5.6838 C   0  0  0  0  0  0  0  0  0  0  0  0
   20.4020   47.4115   -5.6401 O   0  0  0  0  0  0  0  0  0  0  0  0
   20.1655   46.4951   -6.6426 C   0  0  0  0  0  0  0  0  0  0  0  0
   21.1427   46.0284   -7.5537 C   0  0  0  0  0  0  0  0  0  0  0  0
   20.7646   45.1060   -8.5501 C   0  0  0  0  0  0  0  0  0  0  0  0
   19.4192   44.7003   -8.6097 C   0  0  0  0  0  0  0  0  0  0  0  0
   18.5225   45.1979   -7.6466 C   0  0  0  0  0  0  0  0  0  0  0  0
   17.0725   44.7688   -7.6572 C   0  0  0  0  0  0  0  0  0  0  0  0
   18.8819   46.0698   -6.6777 N   0  0  0  0  0  0  0  0  0  0  0  0
   21.7635   44.5714   -9.5281 C   0  0  0  0  0  0  0  0  0  0  0  0
   21.5291   44.5744  -10.7354 O   0  0  0  0  0  0  0  0  0  0  0  0
   22.8671   44.0550   -8.9602 N   0  0  0  0  0  0  0  0  0  0  0  0
   19.3474   38.9297   -9.4425 C   0  0  0  0  0  0  0  0  0  0  0  0
   24.3481   41.2123  -10.0938 H   0  0  0  0  0  0  0  0  0  0  0  0
   24.1822   43.8261  -10.5740 H   0  0  0  0  0  0  0  0  0  0  0  0
   26.2453   44.9163   -9.6798 H   0  0  0  0  0  0  0  0  0  0  0  0
   17.1419   40.0130   -7.0719 H   0  0  0  0  0  0  0  0  0  0  0  0
   18.0469   38.5232   -6.8126 H   0  0  0  0  0  0  0  0  0  0  0  0
   16.2975   38.5497   -6.6079 H   0  0  0  0  0  0  0  0  0  0  0  0
   15.9541   38.9641   -8.9917 H   0  0  0  0  0  0  0  0  0  0  0  0
   16.7891   36.8448  -10.0113 H   0  0  0  0  0  0  0  0  0  0  0  0
   16.0601   36.5910   -8.4397 H   0  0  0  0  0  0  0  0  0  0  0  0
   17.8144   36.5748   -8.5997 H   0  0  0  0  0  0  0  0  0  0  0  0
   16.5320   40.4876  -10.6060 H   0  0  0  0  0  0  0  0  0  0  0  0
   18.2134   41.5785  -12.0627 H   0  0  0  0  0  0  0  0  0  0  0  0
   20.6012   40.9721  -11.8809 H   0  0  0  0  0  0  0  0  0  0  0  0
   21.8449   38.0999  -10.1053 H   0  0  0  0  0  0  0  0  0  0  0  0
   22.2858   39.4706  -11.0750 H   0  0  0  0  0  0  0  0  0  0  0  0
   23.4066   39.3802   -8.9799 H   0  0  0  0  0  0  0  0  0  0  0  0
   21.5093   41.6466   -9.0211 H   0  0  0  0  0  0  0  0  0  0  0  0
   22.8589   41.4947   -7.9429 H   0  0  0  0  0  0  0  0  0  0  0  0
   23.3990   41.4402  -11.8717 H   0  0  0  0  0  0  0  0  0  0  0  0
   24.9775   42.8873   -7.7851 H   0  0  0  0  0  0  0  0  0  0  0  0
   25.8808   42.5500   -9.2350 H   0  0  0  0  0  0  0  0  0  0  0  0
   27.2653   43.9185   -6.9883 H   0  0  0  0  0  0  0  0  0  0  0  0
   27.9892   45.2148   -7.9364 H   0  0  0  0  0  0  0  0  0  0  0  0
   27.9549   43.5806   -8.5679 H   0  0  0  0  0  0  0  0  0  0  0  0
   25.9765   46.6307   -7.9540 H   0  0  0  0  0  0  0  0  0  0  0  0
   24.4714   46.0908   -8.5961 H   0  0  0  0  0  0  0  0  0  0  0  0
   24.1251   44.6535   -6.5290 H   0  0  0  0  0  0  0  0  0  0  0  0
   25.6168   45.3026   -5.8584 H   0  0  0  0  0  0  0  0  0  0  0  0
   22.6393   45.6778   -5.0458 H   0  0  0  0  0  0  0  0  0  0  0  0
   24.0280   46.2433   -4.1221 H   0  0  0  0  0  0  0  0  0  0  0  0
   22.1458   47.7507   -3.6597 H   0  0  0  0  0  0  0  0  0  0  0  0
   23.3652   48.6021   -4.5485 H   0  0  0  0  0  0  0  0  0  0  0  0
   21.2369   49.2356   -5.4275 H   0  0  0  0  0  0  0  0  0  0  0  0
   22.0055   48.3322   -6.6789 H   0  0  0  0  0  0  0  0  0  0  0  0
   22.1645   46.3655   -7.5182 H   0  0  0  0  0  0  0  0  0  0  0  0
   19.0901   43.9970   -9.3630 H   0  0  0  0  0  0  0  0  0  0  0  0
   16.8388   44.1802   -8.5468 H   0  0  0  0  0  0  0  0  0  0  0  0
   16.4078   45.6365   -7.6399 H   0  0  0  0  0  0  0  0  0  0  0  0
   16.8605   44.1477   -6.7859 H   0  0  0  0  0  0  0  0  0  0  0  0
   22.9269   44.1124   -7.9569 H   0  0  0  0  0  0  0  0  0  0  0  0
   19.6694   38.2000   -8.7139 H   0  0  0  0  0  0  0  0  0  0  0  0
  1  2  1  0  0  0  0
  1 39  1  0  0  0  0
  1 40  1  0  0  0  0
  1 41  1  0  0  0  0
  2  3  1  0  0  0  0
  2  4  1  0  0  0  0
  2 42  1  0  0  0  0
  3 43  1  0  0  0  0
  3 44  1  0  0  0  0
  3 45  1  0  0  0  0
  4 35  1  0  0  0  0
  4  5  2  0  0  0  0
  5  6  1  0  0  0  0
  5 46  1  0  0  0  0
  6  7  2  0  0  0  0
  6 47  1  0  0  0  0
  7  8  1  0  0  0  0
  7 48  1  0  0  0  0
  8  9  1  0  0  0  0
  8 35  2  0  0  0  0
  9 10  1  0  0  0  0
  9 49  1  0  0  0  0
  9 50  1  0  0  0  0
 10 11  1  0  0  0  0
 10 51  1  0  0  0  0
 11 12  1  0  0  0  0
 11 52  1  0  0  0  0
 11 53  1  0  0  0  0
 12 36  1  6  0  0  0
 12 13  1  0  0  0  0
 12 14  1  0  0  0  0
 13 54  1  0  0  0  0
 14 37  1  6  0  0  0
 14 34  1  0  0  0  0
 14 15  1  0  0  0  0
 15 16  1  0  0  0  0
 15 55  1  0  0  0  0
 15 56  1  0  0  0  0
 16 38  1  6  0  0  0
 16 17  1  0  0  0  0
 16 18  1  0  0  0  0
 17 57  1  0  0  0  0
 17 58  1  0  0  0  0
 17 59  1  0  0  0  0
 18 19  1  0  0  0  0
 18 60  1  0  0  0  0
 18 61  1  0  0  0  0
 19 20  1  0  0  0  0
 19 62  1  0  0  0  0
 19 63  1  0  0  0  0
 20 21  1  0  0  0  0
 21 22  1  0  0  0  0
 21 64  1  0  0  0  0
 21 65  1  0  0  0  0
 22 23  1  0  0  0  0
 22 66  1  0  0  0  0
 22 67  1  0  0  0  0
 23 24  1  0  0  0  0
 23 68  1  0  0  0  0
 23 69  1  0  0  0  0
 24 25  1  0  0  0  0
 25 31  1  0  0  0  0
 25 26  2  0  0  0  0
 26 27  1  0  0  0  0
 26 70  1  0  0  0  0
 27 28  2  0  0  0  0
 27 32  1  0  0  0  0
 28 29  1  0  0  0  0
 28 71  1  0  0  0  0
 29 30  1  0  0  0  0
 29 31  2  0  0  0  0
 30 72  1  0  0  0  0
 30 73  1  0  0  0  0
 30 74  1  0  0  0  0
 32 33  2  0  0  0  0
 32 34  1  0  0  0  0
 34 75  1  0  0  0  0
 35 76  1  0  0  0  0
M  END
>  <s_m_source_file>
BACE_54.smi

>  <i_m_source_file_index>
1

>  <i_lp_mmshare_version>
42013

>  <i_f3d_flags>
0

>  <s_epik_input>
W0NIM11bQ0hdKFtDSDNdKWMxW2NIXVtjSF1bY0hdYyhbY0hdMSlbQ0gyXVtOSF1bQ0gyXVtDQEBIXShbT0hdKVtDQEBIXShbTkhdQyg9TyljKFtjSF1jMjMpW2NIXWMobjMpW0NIM10pW0NIMl1bQ0BIXShbQ0gzXSlbQ0gyXVtDSDJdT1tDSDJdW0NIMl1bQ0gyXU8y

>  <s_epik_cmdline>
J2VwaWtfcHl0aG9uJywgJy1waCcsICc3LjAnLCAnLXRuJywgJzgnLCAnLW1hJywgJzIwMCcsICctaW1hZScsICc8aW5maWxlLm1hZT4nLCAnLW9tYWUnLCAnPG91dGZpbGUubWFlPic=

>  <r_lp_tautomer_probability>
1

>  <r_epik_Ionization_Penalty>
2.0939

>  <r_epik_Ionization_Penalty_Charging>
0.0000

>  <r_epik_Ionization_Penalty_Neutral>
2.0939

>  <r_epik_State_Penalty>
2.2295

>  <r_epik_Charging_Adjusted_Penalty>
2.2295

>  <i_epik_Tot_Q>
0

>  <i_epik_Tot_abs_Q>
0

>  <s_lp_Force_Field>
OPLS_2005

>  <r_lp_Energy>
33.9145

>  <b_lp_Chiralities_Consistent>
1

>  <s_lp_Variant>
BACE_54.smi:1-2

>  <chiral flag>
1

>  <version>
0

>  <s_i_glide_gridfile>
second_dock_grid_2

>  <i_i_glide_lignum>
105

>  <i_i_glide_rotatable_bonds>
7

>  <r_i_docking_score>
-0.2184

>  <r_i_glide_ligand_efficiency>
-0.00624001

>  <r_i_glide_ligand_efficiency_sa>
-0.0204115

>  <r_i_glide_ligand_efficiency_ln>
-0.0479437

>  <r_glide_XP_GScore>
-2.4479

>  <r_i_glide_gscore>
-2.4479

>  <r_i_glide_evdw>
-31.6102

>  <r_i_glide_ecoul>
-8.60795

>  <r_i_glide_energy>
-40.2182

>  <r_i_glide_einternal>
5.47961

>  <r_i_glide_emodel>
-48.816

>  <r_glide_XP_HBond>
-0.96

>  <i_i_glide_confnum>
1

>  <i_i_glide_posenum>
8

>  <r_i_glide_eff_state_penalty>
2.2295

>  <i_glide_XP_PoseRank>
1

$$$$
