BACE_114.smi:1
 OpenBabel09291822493D
Structure written by MMmdl.
 81 84  0  0  1  0  0  0  0  0999 V2000
   15.1316   38.2972   -7.9489 C   0  0  0  0  0  0  0  0  0  0  0  0
   16.0972   39.4051   -7.5018 C   0  0  0  0  0  0  0  0  0  0  0  0
   15.3881   40.7594   -7.3961 C   0  0  0  0  0  0  0  0  0  0  0  0
   17.3296   39.5033   -8.3924 C   0  0  0  0  0  0  0  0  0  0  0  0
   18.6044   39.6720   -7.8099 C   0  0  0  0  0  0  0  0  0  0  0  0
   19.7722   39.7486   -8.6074 C   0  0  0  0  0  0  0  0  0  0  0  0
   19.6332   39.6194  -10.0112 C   0  0  0  0  0  0  0  0  0  0  0  0
   18.3657   39.4729  -10.6002 C   0  0  0  0  0  0  0  0  0  0  0  0
   17.2153   39.4246   -9.7965 C   0  0  0  0  0  0  0  0  0  0  0  0
   21.1567   39.8989   -7.9496 C   0  0  0  0  0  0  0  0  0  0  0  0
   21.1474   40.9544   -6.8181 C   0  0  0  0  0  0  0  0  0  0  0  0
   21.5297   38.5370   -7.3462 C   0  0  0  0  0  0  0  0  0  0  0  0
   22.1967   40.2313   -8.9403 N   0  0  0  0  0  0  0  0  0  0  0  0
   22.2959   41.6138   -9.4256 C   0  0  0  0  0  0  0  0  0  0  0  0
   23.0393   41.6657  -10.7760 C   0  0  1  0  0  0  0  0  0  0  0  0
   22.0600   41.4704  -11.7784 O   0  0  0  0  0  0  0  0  0  0  0  0
   23.8358   42.9863  -11.0205 C   0  0  2  0  0  0  0  0  0  0  0  0
   23.3296   43.8703  -12.1919 C   0  0  0  0  0  0  0  0  0  0  0  0
   24.1118   45.1648  -12.3771 C   0  0  0  0  0  0  0  0  0  0  0  0
   24.9595   45.3443  -13.4924 C   0  0  0  0  0  0  0  0  0  0  0  0
   25.7020   46.5331  -13.6555 C   0  0  0  0  0  0  0  0  0  0  0  0
   25.5553   47.5683  -12.7029 C   0  0  0  0  0  0  0  0  0  0  0  0
   24.7065   47.3983  -11.5925 C   0  0  0  0  0  0  0  0  0  0  0  0
   23.9897   46.1990  -11.4273 C   0  0  0  0  0  0  0  0  0  0  0  0
   26.5234   46.6460  -14.7572 O   0  0  0  0  0  0  0  0  0  0  0  0
   27.7945   47.2713  -14.5660 C   0  0  0  0  0  0  0  0  0  0  0  0
   28.9013   46.3040  -15.0171 C   0  0  0  0  0  0  0  0  0  0  0  0
   28.8225   44.9787  -14.2494 C   0  0  0  0  0  0  0  0  0  0  0  0
   29.9106   43.9455  -14.6068 C   0  0  0  0  0  0  0  0  0  0  0  0
   29.6599   42.6005  -14.0853 N   0  0  0  0  0  0  0  0  0  0  0  0
   29.2922   42.5161  -12.7355 C   0  0  0  0  0  0  0  0  0  0  0  0
   27.9567   42.7276  -12.3302 C   0  0  0  0  0  0  0  0  0  0  0  0
   27.6477   42.7561  -10.9558 C   0  0  0  0  0  0  0  0  0  0  0  0
   28.7052   42.5500  -10.0487 C   0  0  0  0  0  0  0  0  0  0  0  0
   29.9748   42.2696  -10.4194 N   0  0  0  0  0  0  0  0  0  0  0  0
   30.2547   42.2554  -11.7384 C   0  0  0  0  0  0  0  0  0  0  0  0
   26.2721   43.0917  -10.4604 C   0  0  0  0  0  0  0  0  0  0  0  0
   26.1206   43.6972   -9.4010 O   0  0  0  0  0  0  0  0  0  0  0  0
   25.2526   42.6758  -11.2275 N   0  0  0  0  0  0  0  0  0  0  0  0
   23.7239   40.8159  -10.8382 H   0  0  0  0  0  0  0  0  0  0  0  0
   23.7375   43.5983  -10.1230 H   0  0  0  0  0  0  0  0  0  0  0  0
   15.6593   37.3499   -8.0489 H   0  0  0  0  0  0  0  0  0  0  0  0
   14.6438   38.5205   -8.8968 H   0  0  0  0  0  0  0  0  0  0  0  0
   14.3481   38.1512   -7.2039 H   0  0  0  0  0  0  0  0  0  0  0  0
   16.4336   39.1309   -6.5001 H   0  0  0  0  0  0  0  0  0  0  0  0
   16.0073   41.4900   -6.8731 H   0  0  0  0  0  0  0  0  0  0  0  0
   14.4602   40.6591   -6.8394 H   0  0  0  0  0  0  0  0  0  0  0  0
   15.1339   41.1582   -8.3784 H   0  0  0  0  0  0  0  0  0  0  0  0
   18.6750   39.7319   -6.7342 H   0  0  0  0  0  0  0  0  0  0  0  0
   20.4950   39.6280  -10.6603 H   0  0  0  0  0  0  0  0  0  0  0  0
   18.2782   39.3853  -11.6724 H   0  0  0  0  0  0  0  0  0  0  0  0
   16.2506   39.3079  -10.2668 H   0  0  0  0  0  0  0  0  0  0  0  0
   20.5251   40.6502   -5.9770 H   0  0  0  0  0  0  0  0  0  0  0  0
   20.7696   41.9167   -7.1652 H   0  0  0  0  0  0  0  0  0  0  0  0
   22.1495   41.1141   -6.4193 H   0  0  0  0  0  0  0  0  0  0  0  0
   20.7759   38.1928   -6.6374 H   0  0  0  0  0  0  0  0  0  0  0  0
   22.4755   38.5816   -6.8100 H   0  0  0  0  0  0  0  0  0  0  0  0
   21.6193   37.7757   -8.1219 H   0  0  0  0  0  0  0  0  0  0  0  0
   23.0960   39.8037   -8.7399 H   0  0  0  0  0  0  0  0  0  0  0  0
   21.3103   42.0718   -9.5216 H   0  0  0  0  0  0  0  0  0  0  0  0
   22.8362   42.2007   -8.6819 H   0  0  0  0  0  0  0  0  0  0  0  0
   22.5360   41.1395  -12.5336 H   0  0  0  0  0  0  0  0  0  0  0  0
   23.3658   43.3048  -13.1244 H   0  0  0  0  0  0  0  0  0  0  0  0
   22.2823   44.1306  -12.0337 H   0  0  0  0  0  0  0  0  0  0  0  0
   25.0574   44.5556  -14.2226 H   0  0  0  0  0  0  0  0  0  0  0  0
   26.0841   48.5025  -12.8190 H   0  0  0  0  0  0  0  0  0  0  0  0
   24.6048   48.1902  -10.8653 H   0  0  0  0  0  0  0  0  0  0  0  0
   23.3439   46.0756  -10.5700 H   0  0  0  0  0  0  0  0  0  0  0  0
   27.8305   48.1896  -15.1523 H   0  0  0  0  0  0  0  0  0  0  0  0
   27.9912   47.5479  -13.5298 H   0  0  0  0  0  0  0  0  0  0  0  0
   28.8181   46.1208  -16.0871 H   0  0  0  0  0  0  0  0  0  0  0  0
   29.8758   46.7659  -14.8574 H   0  0  0  0  0  0  0  0  0  0  0  0
   28.8624   45.1958  -13.1808 H   0  0  0  0  0  0  0  0  0  0  0  0
   27.8414   44.5500  -14.4407 H   0  0  0  0  0  0  0  0  0  0  0  0
   29.9885   43.8590  -15.6907 H   0  0  0  0  0  0  0  0  0  0  0  0
   30.8835   44.2909  -14.2558 H   0  0  0  0  0  0  0  0  0  0  0  0
   30.3905   41.9514  -14.3520 H   0  0  0  0  0  0  0  0  0  0  0  0
   27.1901   42.9133  -13.0681 H   0  0  0  0  0  0  0  0  0  0  0  0
   28.5199   42.5922   -8.9868 H   0  0  0  0  0  0  0  0  0  0  0  0
   31.2858   42.0706  -12.0031 H   0  0  0  0  0  0  0  0  0  0  0  0
   25.4648   42.1190  -12.0415 H   0  0  0  0  0  0  0  0  0  0  0  0
  1  2  1  0  0  0  0
  1 42  1  0  0  0  0
  1 43  1  0  0  0  0
  1 44  1  0  0  0  0
  2  3  1  0  0  0  0
  2  4  1  0  0  0  0
  2 45  1  0  0  0  0
  3 46  1  0  0  0  0
  3 47  1  0  0  0  0
  3 48  1  0  0  0  0
  4  9  1  0  0  0  0
  4  5  2  0  0  0  0
  5  6  1  0  0  0  0
  5 49  1  0  0  0  0
  6  7  2  0  0  0  0
  6 10  1  0  0  0  0
  7  8  1  0  0  0  0
  7 50  1  0  0  0  0
  8  9  2  0  0  0  0
  8 51  1  0  0  0  0
  9 52  1  0  0  0  0
 10 11  1  0  0  0  0
 10 12  1  0  0  0  0
 10 13  1  0  0  0  0
 11 53  1  0  0  0  0
 11 54  1  0  0  0  0
 11 55  1  0  0  0  0
 12 56  1  0  0  0  0
 12 57  1  0  0  0  0
 12 58  1  0  0  0  0
 13 14  1  0  0  0  0
 13 59  1  0  0  0  0
 14 15  1  0  0  0  0
 14 60  1  0  0  0  0
 14 61  1  0  0  0  0
 15 40  1  6  0  0  0
 15 16  1  0  0  0  0
 15 17  1  0  0  0  0
 16 62  1  0  0  0  0
 17 41  1  1  0  0  0
 17 39  1  0  0  0  0
 17 18  1  0  0  0  0
 18 19  1  0  0  0  0
 18 63  1  0  0  0  0
 18 64  1  0  0  0  0
 19 24  1  0  0  0  0
 19 20  2  0  0  0  0
 20 21  1  0  0  0  0
 20 65  1  0  0  0  0
 21 22  2  0  0  0  0
 21 25  1  0  0  0  0
 22 23  1  0  0  0  0
 22 66  1  0  0  0  0
 23 24  2  0  0  0  0
 23 67  1  0  0  0  0
 24 68  1  0  0  0  0
 25 26  1  0  0  0  0
 26 27  1  0  0  0  0
 26 69  1  0  0  0  0
 26 70  1  0  0  0  0
 27 28  1  0  0  0  0
 27 71  1  0  0  0  0
 27 72  1  0  0  0  0
 28 29  1  0  0  0  0
 28 73  1  0  0  0  0
 28 74  1  0  0  0  0
 29 30  1  0  0  0  0
 29 75  1  0  0  0  0
 29 76  1  0  0  0  0
 30 31  1  0  0  0  0
 30 77  1  0  0  0  0
 31 36  1  0  0  0  0
 31 32  2  0  0  0  0
 32 33  1  0  0  0  0
 32 78  1  0  0  0  0
 33 34  2  0  0  0  0
 33 37  1  0  0  0  0
 34 35  1  0  0  0  0
 34 79  1  0  0  0  0
 35 36  2  0  0  0  0
 36 80  1  0  0  0  0
 37 38  2  0  0  0  0
 37 39  1  0  0  0  0
 39 81  1  0  0  0  0
M  END
>  <s_m_source_file>
BACE_114.smi

>  <i_m_source_file_index>
1

>  <i_lp_mmshare_version>
42013

>  <i_f3d_flags>
0

>  <s_epik_input>
W0NIM11bQ0hdKFtDSDNdKWMxW2NIXWMoW2NIXVtjSF1bY0hdMSlDKFtDSDNdKShbQ0gzXSlbTkhdW0NIMl1bQ0BASF0oW09IXSlbQ0BIXShbQ0gyXTIpW05IXUMoPU8pYyhbY0hdbltjSF0zKVtjSF1jM1tOSF1bQ0gyXVtDSDJdW0NIMl1bQ0gyXU9jKFtjSF1jMjQpW2NIXVtjSF1bY0hdNA==

>  <s_epik_cmdline>
J2VwaWtfcHl0aG9uJywgJy1waCcsICc3LjAnLCAnLXRuJywgJzgnLCAnLW1hJywgJzIwMCcsICctaW1hZScsICc8aW5maWxlLm1hZT4nLCAnLW9tYWUnLCAnPG91dGZpbGUubWFlPic=

>  <r_lp_tautomer_probability>
1

>  <r_epik_Ionization_Penalty>
2.0179

>  <r_epik_Ionization_Penalty_Charging>
0.0000

>  <r_epik_Ionization_Penalty_Neutral>
2.0179

>  <r_epik_State_Penalty>
2.1460

>  <r_epik_Charging_Adjusted_Penalty>
2.14597

>  <i_epik_Tot_Q>
0

>  <i_epik_Tot_abs_Q>
0

>  <s_lp_Force_Field>
OPLS_2005

>  <r_lp_Energy>
48.3405

>  <b_lp_Chiralities_Consistent>
1

>  <s_lp_Variant>
BACE_114.smi:1-2

>  <chiral flag>
1

>  <version>
0

>  <s_i_glide_gridfile>
second_dock_grid_2

>  <i_i_glide_lignum>
233

>  <i_i_glide_rotatable_bonds>
7

>  <r_i_docking_score>
-1.84743

>  <r_i_glide_ligand_efficiency>
-0.0473701

>  <r_i_glide_ligand_efficiency_sa>
-0.160642

>  <r_i_glide_ligand_efficiency_ln>
-0.396142

>  <r_glide_XP_GScore>
-3.99343

>  <r_i_glide_gscore>
-3.99343

>  <r_i_glide_evdw>
-39.0884

>  <r_i_glide_ecoul>
-8.919

>  <r_i_glide_energy>
-48.0074

>  <r_i_glide_einternal>
6.95517

>  <r_i_glide_emodel>
-56.0512

>  <r_glide_XP_HBond>
-1.12291

>  <i_i_glide_confnum>
1

>  <i_i_glide_posenum>
8

>  <r_i_glide_eff_state_penalty>
2.146

>  <i_glide_XP_PoseRank>
1

$$$$
