BACE_82.smi:1
 OpenBabel09291822493D
Structure written by MMmdl.
 90 92  0  0  1  0  0  0  0  0999 V2000
   30.6175   45.8915  -10.4292 C   0  0  0  0  0  0  0  0  0  0  0  0
   30.3314   44.6724   -9.5405 C   0  0  0  0  0  0  0  0  0  0  0  0
   31.6271   44.0482   -9.0031 C   0  0  0  0  0  0  0  0  0  0  0  0
   29.4618   43.6499  -10.2606 C   0  0  0  0  0  0  0  0  0  0  0  0
   28.1433   43.4177   -9.8147 C   0  0  0  0  0  0  0  0  0  0  0  0
   27.3256   42.4696  -10.4623 C   0  0  0  0  0  0  0  0  0  0  0  0
   25.9343   42.1831   -9.9392 C   0  0  0  0  0  0  0  0  0  0  0  0
   24.8656   42.5482  -10.8693 N   0  0  0  0  0  0  0  0  0  0  0  0
   23.5152   42.4088  -10.3044 C   0  0  0  0  0  0  0  0  0  0  0  0
   23.1631   40.9422   -9.9419 C   0  0  1  0  0  0  0  0  0  0  0  0
   23.6474   40.7112   -8.6323 O   0  0  0  0  0  0  0  0  0  0  0  0
   21.6529   40.5593   -9.9437 C   0  0  2  0  0  0  0  0  0  0  0  0
   21.5234   39.0207   -9.7414 C   0  0  0  0  0  0  0  0  0  0  0  0
   20.1239   38.4036   -9.5045 C   0  0  2  0  0  0  0  0  0  0  0  0
   19.2396   38.3760  -10.7571 C   0  0  0  0  0  0  0  0  0  0  0  0
   19.4051   39.0173   -8.2933 C   0  0  0  0  0  0  0  0  0  0  0  0
   18.1736   38.2205   -7.8202 C   0  0  0  0  0  0  0  0  0  0  0  0
   17.4968   38.8874   -6.6159 C   0  0  0  0  0  0  0  0  0  0  0  0
   16.1471   39.5402   -6.9510 C   0  0  0  0  0  0  0  0  0  0  0  0
   16.2902   40.6720   -7.9722 C   0  0  0  0  0  0  0  0  0  0  0  0
   14.9633   41.3574   -8.3084 C   0  0  0  0  0  0  0  0  0  0  0  0
   15.0517   42.3590   -9.4720 C   0  0  0  0  0  0  0  0  0  0  0  0
   15.8812   43.4750   -9.1540 O   0  0  0  0  0  0  0  0  0  0  0  0
   17.2474   43.3847   -9.3194 C   0  0  0  0  0  0  0  0  0  0  0  0
   18.0308   44.2069   -8.4896 C   0  0  0  0  0  0  0  0  0  0  0  0
   19.4343   44.2289   -8.6012 C   0  0  0  0  0  0  0  0  0  0  0  0
   20.0612   43.3989   -9.5553 C   0  0  0  0  0  0  0  0  0  0  0  0
   19.3044   42.5428  -10.3840 C   0  0  0  0  0  0  0  0  0  0  0  0
   17.8949   42.5551  -10.2714 C   0  0  0  0  0  0  0  0  0  0  0  0
   19.9537   41.7233  -11.4717 C   0  0  0  0  0  0  0  0  0  0  0  0
   19.4738   41.7482  -12.6049 O   0  0  0  0  0  0  0  0  0  0  0  0
   21.0303   40.9535  -11.2140 N   0  0  0  0  0  0  0  0  0  0  0  0
   20.1846   45.0859   -7.7793 N   0  0  0  0  0  0  0  0  0  0  0  0
   21.1686   45.9031   -8.4816 C   0  0  0  0  0  0  0  0  0  0  0  0
   20.1475   45.1442   -6.0404 S   0  0  0  0  0  0  0  0  0  0  0  0
   20.1382   43.3750   -5.5700 C   0  0  0  0  0  0  0  0  0  0  0  0
   21.4195   45.7539   -5.6279 O   0  0  0  0  0  0  0  0  0  0  0  0
   18.8642   45.7565   -5.6582 O   0  0  0  0  0  0  0  0  0  0  0  0
   27.8281   41.7501  -11.5655 C   0  0  0  0  0  0  0  0  0  0  0  0
   29.1410   41.9783  -12.0189 C   0  0  0  0  0  0  0  0  0  0  0  0
   29.9549   42.9259  -11.3693 C   0  0  0  0  0  0  0  0  0  0  0  0
   23.6856   40.2824  -10.6360 H   0  0  0  0  0  0  0  0  0  0  0  0
   21.1693   41.0605   -9.1074 H   0  0  0  0  0  0  0  0  0  0  0  0
   20.3180   37.3598   -9.2538 H   0  0  0  0  0  0  0  0  0  0  0  0
   29.6909   46.3581  -10.7651 H   0  0  0  0  0  0  0  0  0  0  0  0
   31.1891   45.6170  -11.3154 H   0  0  0  0  0  0  0  0  0  0  0  0
   31.1900   46.6442   -9.8873 H   0  0  0  0  0  0  0  0  0  0  0  0
   29.7705   45.0311   -8.6749 H   0  0  0  0  0  0  0  0  0  0  0  0
   31.4158   43.1801   -8.3775 H   0  0  0  0  0  0  0  0  0  0  0  0
   32.1811   44.7626   -8.3950 H   0  0  0  0  0  0  0  0  0  0  0  0
   32.2826   43.7316   -9.8132 H   0  0  0  0  0  0  0  0  0  0  0  0
   27.7588   43.9579   -8.9616 H   0  0  0  0  0  0  0  0  0  0  0  0
   25.8982   41.1173   -9.7095 H   0  0  0  0  0  0  0  0  0  0  0  0
   25.7930   42.7142   -8.9972 H   0  0  0  0  0  0  0  0  0  0  0  0
   24.9250   41.9403  -11.6843 H   0  0  0  0  0  0  0  0  0  0  0  0
   23.3945   43.0552   -9.4352 H   0  0  0  0  0  0  0  0  0  0  0  0
   22.8172   42.7765  -11.0542 H   0  0  0  0  0  0  0  0  0  0  0  0
   23.8721   39.7926   -8.5655 H   0  0  0  0  0  0  0  0  0  0  0  0
   21.9985   38.5183  -10.5813 H   0  0  0  0  0  0  0  0  0  0  0  0
   22.1225   38.7292   -8.8795 H   0  0  0  0  0  0  0  0  0  0  0  0
   18.7297   39.3211  -10.9234 H   0  0  0  0  0  0  0  0  0  0  0  0
   18.4645   37.6141  -10.6700 H   0  0  0  0  0  0  0  0  0  0  0  0
   19.8287   38.1508  -11.6418 H   0  0  0  0  0  0  0  0  0  0  0  0
   20.1103   39.0882   -7.4642 H   0  0  0  0  0  0  0  0  0  0  0  0
   19.1093   40.0402   -8.5247 H   0  0  0  0  0  0  0  0  0  0  0  0
   17.4546   38.0896   -8.6308 H   0  0  0  0  0  0  0  0  0  0  0  0
   18.4600   37.2091   -7.5415 H   0  0  0  0  0  0  0  0  0  0  0  0
   17.3414   38.1501   -5.8345 H   0  0  0  0  0  0  0  0  0  0  0  0
   18.1807   39.6123   -6.1835 H   0  0  0  0  0  0  0  0  0  0  0  0
   15.4580   38.7789   -7.3198 H   0  0  0  0  0  0  0  0  0  0  0  0
   15.6964   39.9265   -6.0351 H   0  0  0  0  0  0  0  0  0  0  0  0
   16.9936   41.4031   -7.5711 H   0  0  0  0  0  0  0  0  0  0  0  0
   16.7234   40.2833   -8.8937 H   0  0  0  0  0  0  0  0  0  0  0  0
   14.2370   40.5887   -8.5770 H   0  0  0  0  0  0  0  0  0  0  0  0
   14.5747   41.8527   -7.4167 H   0  0  0  0  0  0  0  0  0  0  0  0
   15.3182   41.8650  -10.4037 H   0  0  0  0  0  0  0  0  0  0  0  0
   14.0532   42.7594   -9.6475 H   0  0  0  0  0  0  0  0  0  0  0  0
   17.5378   44.8381   -7.7654 H   0  0  0  0  0  0  0  0  0  0  0  0
   21.1327   43.4319   -9.6572 H   0  0  0  0  0  0  0  0  0  0  0  0
   17.3287   41.9320  -10.9458 H   0  0  0  0  0  0  0  0  0  0  0  0
   21.4126   40.4888  -12.0250 H   0  0  0  0  0  0  0  0  0  0  0  0
   21.0741   45.8697   -9.5698 H   0  0  0  0  0  0  0  0  0  0  0  0
   22.1798   45.5857   -8.2187 H   0  0  0  0  0  0  0  0  0  0  0  0
   21.0566   46.9465   -8.1828 H   0  0  0  0  0  0  0  0  0  0  0  0
   20.1152   43.2872   -4.4859 H   0  0  0  0  0  0  0  0  0  0  0  0
   21.0338   42.8907   -5.9541 H   0  0  0  0  0  0  0  0  0  0  0  0
   19.2593   42.8885   -5.9856 H   0  0  0  0  0  0  0  0  0  0  0  0
   27.2179   40.9985  -12.0401 H   0  0  0  0  0  0  0  0  0  0  0  0
   29.5230   41.4191  -12.8609 H   0  0  0  0  0  0  0  0  0  0  0  0
   30.9611   43.0933  -11.7251 H   0  0  0  0  0  0  0  0  0  0  0  0
  1  2  1  0  0  0  0
  1 45  1  0  0  0  0
  1 46  1  0  0  0  0
  1 47  1  0  0  0  0
  2  3  1  0  0  0  0
  2  4  1  0  0  0  0
  2 48  1  0  0  0  0
  3 49  1  0  0  0  0
  3 50  1  0  0  0  0
  3 51  1  0  0  0  0
  4 41  1  0  0  0  0
  4  5  2  0  0  0  0
  5  6  1  0  0  0  0
  5 52  1  0  0  0  0
  6  7  1  0  0  0  0
  6 39  2  0  0  0  0
  7  8  1  0  0  0  0
  7 53  1  0  0  0  0
  7 54  1  0  0  0  0
  8  9  1  0  0  0  0
  8 55  1  0  0  0  0
  9 10  1  0  0  0  0
  9 56  1  0  0  0  0
  9 57  1  0  0  0  0
 10 42  1  6  0  0  0
 10 11  1  0  0  0  0
 10 12  1  0  0  0  0
 11 58  1  0  0  0  0
 12 43  1  1  0  0  0
 12 32  1  0  0  0  0
 12 13  1  0  0  0  0
 13 14  1  0  0  0  0
 13 59  1  0  0  0  0
 13 60  1  0  0  0  0
 14 44  1  1  0  0  0
 14 15  1  0  0  0  0
 14 16  1  0  0  0  0
 15 61  1  0  0  0  0
 15 62  1  0  0  0  0
 15 63  1  0  0  0  0
 16 17  1  0  0  0  0
 16 64  1  0  0  0  0
 16 65  1  0  0  0  0
 17 18  1  0  0  0  0
 17 66  1  0  0  0  0
 17 67  1  0  0  0  0
 18 19  1  0  0  0  0
 18 68  1  0  0  0  0
 18 69  1  0  0  0  0
 19 20  1  0  0  0  0
 19 70  1  0  0  0  0
 19 71  1  0  0  0  0
 20 21  1  0  0  0  0
 20 72  1  0  0  0  0
 20 73  1  0  0  0  0
 21 22  1  0  0  0  0
 21 74  1  0  0  0  0
 21 75  1  0  0  0  0
 22 23  1  0  0  0  0
 22 76  1  0  0  0  0
 22 77  1  0  0  0  0
 23 24  1  0  0  0  0
 24 29  1  0  0  0  0
 24 25  2  0  0  0  0
 25 26  1  0  0  0  0
 25 78  1  0  0  0  0
 26 27  2  0  0  0  0
 26 33  1  0  0  0  0
 27 28  1  0  0  0  0
 27 79  1  0  0  0  0
 28 29  2  0  0  0  0
 28 30  1  0  0  0  0
 29 80  1  0  0  0  0
 30 31  2  0  0  0  0
 30 32  1  0  0  0  0
 32 81  1  0  0  0  0
 33 34  1  0  0  0  0
 33 35  1  0  0  0  0
 34 82  1  0  0  0  0
 34 83  1  0  0  0  0
 34 84  1  0  0  0  0
 35 36  1  0  0  0  0
 35 37  2  0  0  0  0
 35 38  2  0  0  0  0
 36 85  1  0  0  0  0
 36 86  1  0  0  0  0
 36 87  1  0  0  0  0
 39 40  1  0  0  0  0
 39 88  1  0  0  0  0
 40 41  2  0  0  0  0
 40 89  1  0  0  0  0
 41 90  1  0  0  0  0
M  END
>  <s_m_source_file>
BACE_82.smi

>  <i_m_source_file_index>
1

>  <i_lp_mmshare_version>
42013

>  <i_f3d_flags>
0

>  <s_epik_input>
W0NIM11bQ0hdKFtDSDNdKWMxW2NIXWMoW2NIXVtjSF1bY0hdMSlbQ0gyXVtOSF1bQ0gyXVtDQEBIXShbT0hdKVtDQEBIXShbTkhdQyg9TyljKFtjSF0yKVtjSF1jKFtjSF1jMjMpTihbQ0gzXSlTKD1PKSg9TylbQ0gzXSlbQ0gyXVtDQEhdKFtDSDNdKVtDSDJdW0NIMl1bQ0gyXVtDSDJdW0NIMl1bQ0gyXVtDSDJdTzM=

>  <s_epik_cmdline>
J2VwaWtfcHl0aG9uJywgJy1waCcsICc3LjAnLCAnLXRuJywgJzgnLCAnLW1hJywgJzIwMCcsICctaW1hZScsICc8aW5maWxlLm1hZT4nLCAnLW9tYWUnLCAnPG91dGZpbGUubWFlPic=

>  <r_lp_tautomer_probability>
1

>  <r_epik_Ionization_Penalty>
2.1294

>  <r_epik_Ionization_Penalty_Charging>
0.0000

>  <r_epik_Ionization_Penalty_Neutral>
2.1294

>  <r_epik_State_Penalty>
2.2676

>  <r_epik_Charging_Adjusted_Penalty>
2.26762

>  <i_epik_Tot_Q>
0

>  <i_epik_Tot_abs_Q>
0

>  <s_lp_Force_Field>
OPLS_2005

>  <r_lp_Energy>
40.8149

>  <b_lp_Chiralities_Consistent>
1

>  <s_lp_Variant>
BACE_82.smi:1-2

>  <chiral flag>
1

>  <version>
0

>  <s_i_glide_gridfile>
second_dock_grid_2

>  <i_i_glide_lignum>
166

>  <i_i_glide_rotatable_bonds>
9

>  <r_i_docking_score>
-2.26369

>  <r_i_glide_ligand_efficiency>
-0.0552119

>  <r_i_glide_ligand_efficiency_sa>
-0.190382

>  <r_i_glide_ligand_efficiency_ln>
-0.480249

>  <r_glide_XP_GScore>
-4.53129

>  <r_i_glide_gscore>
-4.53129

>  <r_i_glide_evdw>
-43.7576

>  <r_i_glide_ecoul>
-12.127

>  <r_i_glide_energy>
-55.8846

>  <r_i_glide_einternal>
6.90259

>  <r_i_glide_emodel>
-68.0063

>  <r_glide_XP_HBond>
-0.7

>  <i_i_glide_confnum>
1

>  <i_i_glide_posenum>
6

>  <r_i_glide_eff_state_penalty>
2.2676

>  <i_glide_XP_PoseRank>
1

$$$$
