BACE_60.smi:1
 OpenBabel09291822493D
Structure written by MMmdl.
 96 99  0  0  1  0  0  0  0  0999 V2000
   12.8644   44.5962  -12.6760 C   0  0  0  0  0  0  0  0  0  0  0  0
   13.0534   44.9471  -11.3114 O   0  0  0  0  0  0  0  0  0  0  0  0
   13.1581   43.8210  -10.4418 C   0  0  0  0  0  0  0  0  0  0  0  0
   14.4005   42.9643  -10.6415 C   0  0  0  0  0  0  0  0  0  0  0  0
   14.3991   41.6378  -10.1668 C   0  0  0  0  0  0  0  0  0  0  0  0
   15.5436   40.8264  -10.2918 C   0  0  0  0  0  0  0  0  0  0  0  0
   16.6947   41.3480  -10.9255 C   0  0  0  0  0  0  0  0  0  0  0  0
   16.7141   42.6806  -11.3887 C   0  0  0  0  0  0  0  0  0  0  0  0
   15.5681   43.4879  -11.2383 C   0  0  0  0  0  0  0  0  0  0  0  0
   17.9586   43.2488  -11.9986 C   0  0  0  0  0  0  0  0  0  0  0  0
   18.0594   43.3485  -13.2214 O   0  0  0  0  0  0  0  0  0  0  0  0
   18.9362   43.6410  -11.1595 N   0  0  0  0  0  0  0  0  0  0  0  0
   18.8507   43.8012   -9.6977 C   0  0  1  0  0  0  0  0  0  0  0  0
   20.0986   43.1603   -9.0329 C   0  0  0  0  0  0  0  0  0  0  0  0
   19.9916   41.6424   -8.7739 C   0  0  2  0  0  0  0  0  0  0  0  0
   19.1868   41.3926   -7.4828 C   0  0  0  0  0  0  0  0  0  0  0  0
   21.4007   40.9998   -8.7064 C   0  0  0  0  0  0  0  0  0  0  0  0
   21.4872   39.4808   -8.4203 C   0  0  0  0  0  0  0  0  0  0  0  0
   21.3173   38.5406   -9.6329 C   0  0  0  0  0  0  0  0  0  0  0  0
   19.8985   38.4135  -10.2135 C   0  0  0  0  0  0  0  0  0  0  0  0
   18.8674   37.7433   -9.2840 C   0  0  0  0  0  0  0  0  0  0  0  0
   17.4241   37.9483   -9.7729 C   0  0  0  0  0  0  0  0  0  0  0  0
   16.7007   39.0861   -9.0416 C   0  0  0  0  0  0  0  0  0  0  0  0
   15.5100   39.5325   -9.7537 N   0  0  0  0  0  0  0  0  0  0  0  0
   18.5763   45.2884   -9.2959 C   0  0  2  0  0  0  0  0  0  0  0  0
   17.6111   45.8594  -10.1614 O   0  0  0  0  0  0  0  0  0  0  0  0
   19.7993   46.2413   -9.2756 C   0  0  0  0  0  0  0  0  0  0  0  0
   20.7074   46.0829   -8.1067 N   0  3  0  0  0  0  0  0  0  0  0  0
   20.3132   46.4871   -6.7204 C   0  0  0  0  0  0  0  0  0  0  0  0
   19.0842   47.4155   -6.5923 C   0  0  0  0  0  0  0  0  0  0  0  0
   18.4609   46.5270   -5.6400 O   0  0  0  0  0  0  0  0  0  0  0  0
   19.4076   45.4859   -5.9795 C   0  0  0  0  0  0  0  0  0  0  0  0
   21.5960   46.7579   -5.9424 C   0  0  0  0  0  0  0  0  0  0  0  0
   21.9224   48.0348   -5.4320 C   0  0  0  0  0  0  0  0  0  0  0  0
   23.0923   48.2402   -4.6590 C   0  0  0  0  0  0  0  0  0  0  0  0
   23.9668   47.1456   -4.4700 C   0  0  0  0  0  0  0  0  0  0  0  0
   23.6609   45.8800   -4.9981 C   0  0  0  0  0  0  0  0  0  0  0  0
   22.4753   45.6813   -5.7154 C   0  0  0  0  0  0  0  0  0  0  0  0
   23.4252   49.6211   -4.0623 C   0  0  0  0  0  0  0  0  0  0  0  0
   24.3103   50.3822   -5.0651 C   0  0  0  0  0  0  0  0  0  0  0  0
   22.1480   50.4448   -3.7765 C   0  0  0  0  0  0  0  0  0  0  0  0
   24.1940   49.5009   -2.7241 C   0  0  0  0  0  0  0  0  0  0  0  0
   17.9898   43.2554   -9.3169 H   0  0  0  0  0  0  0  0  0  0  0  0
   19.4475   41.2157   -9.6089 H   0  0  0  0  0  0  0  0  0  0  0  0
   18.0707   45.2988   -8.3357 H   0  0  0  0  0  0  0  0  0  0  0  0
   12.6234   45.4909  -13.2521 H   0  0  0  0  0  0  0  0  0  0  0  0
   12.0499   43.8842  -12.7973 H   0  0  0  0  0  0  0  0  0  0  0  0
   13.7550   44.1504  -13.1154 H   0  0  0  0  0  0  0  0  0  0  0  0
   12.2646   43.1988  -10.5355 H   0  0  0  0  0  0  0  0  0  0  0  0
   13.1679   44.1892   -9.4156 H   0  0  0  0  0  0  0  0  0  0  0  0
   13.5167   41.2469   -9.6781 H   0  0  0  0  0  0  0  0  0  0  0  0
   17.5728   40.7313  -11.0446 H   0  0  0  0  0  0  0  0  0  0  0  0
   15.5918   44.5159  -11.5715 H   0  0  0  0  0  0  0  0  0  0  0  0
   19.7769   43.9822  -11.5983 H   0  0  0  0  0  0  0  0  0  0  0  0
   20.9778   43.3792   -9.6425 H   0  0  0  0  0  0  0  0  0  0  0  0
   20.2954   43.6027   -8.0616 H   0  0  0  0  0  0  0  0  0  0  0  0
   18.9911   40.3347   -7.3165 H   0  0  0  0  0  0  0  0  0  0  0  0
   18.2118   41.8804   -7.5099 H   0  0  0  0  0  0  0  0  0  0  0  0
   19.7138   41.7610   -6.6030 H   0  0  0  0  0  0  0  0  0  0  0  0
   21.9595   41.5104   -7.9209 H   0  0  0  0  0  0  0  0  0  0  0  0
   21.9452   41.2122   -9.6276 H   0  0  0  0  0  0  0  0  0  0  0  0
   22.4950   39.3000   -8.0430 H   0  0  0  0  0  0  0  0  0  0  0  0
   20.8417   39.1831   -7.5972 H   0  0  0  0  0  0  0  0  0  0  0  0
   21.9974   38.8595  -10.4237 H   0  0  0  0  0  0  0  0  0  0  0  0
   21.6578   37.5454   -9.3431 H   0  0  0  0  0  0  0  0  0  0  0  0
   19.5423   39.3797  -10.5524 H   0  0  0  0  0  0  0  0  0  0  0  0
   19.9590   37.8202  -11.1243 H   0  0  0  0  0  0  0  0  0  0  0  0
   19.0785   36.6761   -9.2401 H   0  0  0  0  0  0  0  0  0  0  0  0
   18.9590   38.0979   -8.2600 H   0  0  0  0  0  0  0  0  0  0  0  0
   16.8509   37.0288   -9.6491 H   0  0  0  0  0  0  0  0  0  0  0  0
   17.4395   38.1509  -10.8400 H   0  0  0  0  0  0  0  0  0  0  0  0
   17.3823   39.9210   -8.8830 H   0  0  0  0  0  0  0  0  0  0  0  0
   16.4076   38.7539   -8.0440 H   0  0  0  0  0  0  0  0  0  0  0  0
   14.6436   39.2838   -9.2929 H   0  0  0  0  0  0  0  0  0  0  0  0
   17.2425   46.6327   -9.7613 H   0  0  0  0  0  0  0  0  0  0  0  0
   19.4958   47.2858   -9.3472 H   0  0  0  0  0  0  0  0  0  0  0  0
   20.3892   46.0655  -10.1769 H   0  0  0  0  0  0  0  0  0  0  0  0
   21.5167   46.6499   -8.3167 H   0  0  0  0  0  0  0  0  0  0  0  0
   19.2706   48.4004   -6.1694 H   0  0  0  0  0  0  0  0  0  0  0  0
   18.4436   47.5218   -7.4631 H   0  0  0  0  0  0  0  0  0  0  0  0
   19.8608   45.0476   -5.0879 H   0  0  0  0  0  0  0  0  0  0  0  0
   18.9505   44.6917   -6.5646 H   0  0  0  0  0  0  0  0  0  0  0  0
   21.2590   48.8597   -5.6235 H   0  0  0  0  0  0  0  0  0  0  0  0
   24.8905   47.2489   -3.9231 H   0  0  0  0  0  0  0  0  0  0  0  0
   24.3390   45.0541   -4.8420 H   0  0  0  0  0  0  0  0  0  0  0  0
   22.2542   44.6912   -6.0900 H   0  0  0  0  0  0  0  0  0  0  0  0
   25.2220   49.8255   -5.2860 H   0  0  0  0  0  0  0  0  0  0  0  0
   24.6130   51.3503   -4.6690 H   0  0  0  0  0  0  0  0  0  0  0  0
   23.7930   50.5481   -6.0096 H   0  0  0  0  0  0  0  0  0  0  0  0
   21.4376   49.8764   -3.1738 H   0  0  0  0  0  0  0  0  0  0  0  0
   21.6351   50.7597   -4.6854 H   0  0  0  0  0  0  0  0  0  0  0  0
   22.3793   51.3527   -3.2199 H   0  0  0  0  0  0  0  0  0  0  0  0
   23.6596   48.8780   -2.0063 H   0  0  0  0  0  0  0  0  0  0  0  0
   24.3360   50.4790   -2.2626 H   0  0  0  0  0  0  0  0  0  0  0  0
   25.1924   49.0823   -2.8504 H   0  0  0  0  0  0  0  0  0  0  0  0
   21.0249   45.1241   -8.0698 H   0  0  0  0  0  0  0  0  0  0  0  0
  1  2  1  0  0  0  0
  1 46  1  0  0  0  0
  1 47  1  0  0  0  0
  1 48  1  0  0  0  0
  2  3  1  0  0  0  0
  3  4  1  0  0  0  0
  3 49  1  0  0  0  0
  3 50  1  0  0  0  0
  4  9  1  0  0  0  0
  4  5  2  0  0  0  0
  5  6  1  0  0  0  0
  5 51  1  0  0  0  0
  6 24  1  0  0  0  0
  6  7  2  0  0  0  0
  7  8  1  0  0  0  0
  7 52  1  0  0  0  0
  8  9  2  0  0  0  0
  8 10  1  0  0  0  0
  9 53  1  0  0  0  0
 10 11  2  0  0  0  0
 10 12  1  0  0  0  0
 12 13  1  0  0  0  0
 12 54  1  0  0  0  0
 13 43  1  1  0  0  0
 13 14  1  0  0  0  0
 13 25  1  0  0  0  0
 14 15  1  0  0  0  0
 14 55  1  0  0  0  0
 14 56  1  0  0  0  0
 15 44  1  6  0  0  0
 15 16  1  0  0  0  0
 15 17  1  0  0  0  0
 16 57  1  0  0  0  0
 16 58  1  0  0  0  0
 16 59  1  0  0  0  0
 17 18  1  0  0  0  0
 17 60  1  0  0  0  0
 17 61  1  0  0  0  0
 18 19  1  0  0  0  0
 18 62  1  0  0  0  0
 18 63  1  0  0  0  0
 19 20  1  0  0  0  0
 19 64  1  0  0  0  0
 19 65  1  0  0  0  0
 20 21  1  0  0  0  0
 20 66  1  0  0  0  0
 20 67  1  0  0  0  0
 21 22  1  0  0  0  0
 21 68  1  0  0  0  0
 21 69  1  0  0  0  0
 22 23  1  0  0  0  0
 22 70  1  0  0  0  0
 22 71  1  0  0  0  0
 23 24  1  0  0  0  0
 23 72  1  0  0  0  0
 23 73  1  0  0  0  0
 24 74  1  0  0  0  0
 25 45  1  1  0  0  0
 25 26  1  0  0  0  0
 25 27  1  0  0  0  0
 26 75  1  0  0  0  0
 27 28  1  0  0  0  0
 27 76  1  0  0  0  0
 27 77  1  0  0  0  0
 28 29  1  0  0  0  0
 28 78  1  0  0  0  0
 28 96  1  0  0  0  0
 29 32  1  0  0  0  0
 29 30  1  0  0  0  0
 29 33  1  0  0  0  0
 30 31  1  0  0  0  0
 30 79  1  0  0  0  0
 30 80  1  0  0  0  0
 31 32  1  0  0  0  0
 32 81  1  0  0  0  0
 32 82  1  0  0  0  0
 33 38  1  0  0  0  0
 33 34  2  0  0  0  0
 34 35  1  0  0  0  0
 34 83  1  0  0  0  0
 35 36  2  0  0  0  0
 35 39  1  0  0  0  0
 36 37  1  0  0  0  0
 36 84  1  0  0  0  0
 37 38  2  0  0  0  0
 37 85  1  0  0  0  0
 38 86  1  0  0  0  0
 39 40  1  0  0  0  0
 39 41  1  0  0  0  0
 39 42  1  0  0  0  0
 40 87  1  0  0  0  0
 40 88  1  0  0  0  0
 40 89  1  0  0  0  0
 41 90  1  0  0  0  0
 41 91  1  0  0  0  0
 41 92  1  0  0  0  0
 42 93  1  0  0  0  0
 42 94  1  0  0  0  0
 42 95  1  0  0  0  0
M  CHG  1  28   1
M  END
>  <s_m_source_file>
BACE_60.smi

>  <i_m_source_file_index>
1

>  <i_lp_mmshare_version>
42013

>  <i_f3d_flags>
0

>  <s_epik_input>
W2NIXTFbY0hdW2NIXWMoQyhbQ0gzXSkoW0NIM10pW0NIM10pW2NIXWMxQzIoW0NIMl1PW0NIMl0yKVtOSF1bQ0gyXVtDQEBIXShbT0hdKVtDQEBIXShbTkhdQyg9TyljKFtjSF0zKVtjSF1jKFtjSF1jMzQpW0NIMl1PW0NIM10pW0NIMl1bQ0BIXShbQ0gzXSlbQ0gyXVtDSDJdW0NIMl1bQ0gyXVtDSDJdW0NIMl1bQ0gyXVtOSF00

>  <s_epik_cmdline>
J2VwaWtfcHl0aG9uJywgJy1waCcsICc3LjAnLCAnLXRuJywgJzgnLCAnLW1hJywgJzIwMCcsICctaW1hZScsICc8aW5maWxlLm1hZT4nLCAnLW9tYWUnLCAnPG91dGZpbGUubWFlPic=

>  <r_epik_Ionization_Penalty>
0.2026

>  <r_epik_Ionization_Penalty_Charging>
0.2020

>  <r_epik_Ionization_Penalty_Neutral>
0.0005

>  <r_epik_State_Penalty>
0.1919

>  <r_epik_Charging_Adjusted_Penalty>
0.393931

>  <i_epik_Tot_Q>
1

>  <i_epik_Tot_abs_Q>
1

>  <s_lp_Force_Field>
OPLS_2005

>  <r_lp_Energy>
50.3916

>  <b_lp_Chiralities_Consistent>
1

>  <s_lp_Variant>
BACE_60.smi:1-1

>  <chiral flag>
1

>  <version>
0

>  <s_i_glide_gridfile>
second_dock_grid_2

>  <i_i_glide_lignum>
119

>  <i_i_glide_rotatable_bonds>
9

>  <r_i_docking_score>
-3.99174

>  <r_i_glide_ligand_efficiency>
-0.0950414

>  <r_i_glide_ligand_efficiency_sa>
-0.330366

>  <r_i_glide_ligand_efficiency_ln>
-0.842553

>  <r_glide_XP_GScore>
-4.18364

>  <r_i_glide_gscore>
-4.18364

>  <r_i_glide_evdw>
-40.1435

>  <r_i_glide_ecoul>
-13.4062

>  <r_i_glide_energy>
-53.5497

>  <r_i_glide_einternal>
3.57707

>  <r_i_glide_emodel>
-74.9293

>  <r_glide_XP_HBond>
-1.50588

>  <i_i_glide_confnum>
1

>  <i_i_glide_posenum>
7

>  <r_i_glide_eff_state_penalty>
0.1919

>  <i_glide_XP_PoseRank>
1

$$$$
