BACE_52.smi:1
 OpenBabel09291822493D
Structure written by MMmdl.
 82 85  0  0  1  0  0  0  0  0999 V2000
   18.2984   38.0093   -7.2161 C   0  0  0  0  0  0  0  0  0  0  0  0
   19.4577   38.3373   -8.1735 C   0  0  0  0  0  0  0  0  0  0  0  0
   18.9534   38.9191   -9.5059 C   0  0  0  0  0  0  0  0  0  0  0  0
   20.5056   39.2334   -7.5177 C   0  0  0  0  0  0  0  0  0  0  0  0
   20.2276   39.9497   -6.3304 C   0  0  0  0  0  0  0  0  0  0  0  0
   21.2364   40.7637   -5.7671 C   0  0  0  0  0  0  0  0  0  0  0  0
   22.4643   40.8918   -6.3214 N   0  0  0  0  0  0  0  0  0  0  0  0
   22.7279   40.2066   -7.4546 C   0  0  0  0  0  0  0  0  0  0  0  0
   21.7898   39.3685   -8.0895 C   0  0  0  0  0  0  0  0  0  0  0  0
   20.9970   41.5620   -4.4935 C   0  0  0  0  0  0  0  0  0  0  0  0
   21.9519   41.3471   -3.3436 C   0  0  0  0  0  0  0  0  0  0  0  0
   20.5447   40.8044   -3.2680 C   0  0  0  0  0  0  0  0  0  0  0  0
   20.4632   42.9183   -4.6915 N   0  3  0  0  0  0  0  0  0  0  0  0
   21.1549   43.7493   -5.7051 C   0  0  0  0  0  0  0  0  0  0  0  0
   22.4254   44.4154   -5.1192 C   0  0  1  0  0  0  0  0  0  0  0  0
   23.2111   43.3599   -4.5943 O   0  0  0  0  0  0  0  0  0  0  0  0
   23.3189   45.2391   -6.1093 C   0  0  2  0  0  0  0  0  0  0  0  0
   23.8312   44.3893   -7.3130 C   0  0  0  0  0  0  0  0  0  0  0  0
   22.8028   43.8832   -8.3669 C   0  0  2  0  0  0  0  0  0  0  0  0
   23.3940   42.6799   -9.1307 C   0  0  0  0  0  0  0  0  0  0  0  0
   22.3684   45.0083   -9.3413 C   0  0  0  0  0  0  0  0  0  0  0  0
   21.1132   44.7066  -10.1960 C   0  0  0  0  0  0  0  0  0  0  0  0
   20.7437   45.8326  -11.1880 C   0  0  0  0  0  0  0  0  0  0  0  0
   20.1709   47.1090  -10.5284 C   0  0  0  0  0  0  0  0  0  0  0  0
   20.8395   48.4271  -10.9914 C   0  0  0  0  0  0  0  0  0  0  0  0
   20.9165   49.5087   -9.8939 C   0  0  0  0  0  0  0  0  0  0  0  0
   22.0148   49.2024   -8.8614 C   0  0  0  0  0  0  0  0  0  0  0  0
   21.9582   50.0939   -7.7537 O   0  0  0  0  0  0  0  0  0  0  0  0
   22.5305   49.6669   -6.5708 C   0  0  0  0  0  0  0  0  0  0  0  0
   23.4358   48.5773   -6.4622 C   0  0  0  0  0  0  0  0  0  0  0  0
   23.8698   48.1695   -5.1820 C   0  0  0  0  0  0  0  0  0  0  0  0
   23.4481   48.9278   -4.0679 C   0  0  0  0  0  0  0  0  0  0  0  0
   22.5827   50.0225   -4.2719 C   0  0  0  0  0  0  0  0  0  0  0  0
   22.0697   50.9458   -2.9073 Cl  0  0  0  0  0  0  0  0  0  0  0  0
   22.1298   50.3782   -5.4939 N   0  0  0  0  0  0  0  0  0  0  0  0
   24.8268   47.0218   -4.9960 C   0  0  0  0  0  0  0  0  0  0  0  0
   25.8815   47.2212   -4.3949 O   0  0  0  0  0  0  0  0  0  0  0  0
   24.5165   45.7833   -5.4454 N   0  0  0  0  0  0  0  0  0  0  0  0
   22.1145   45.0583   -4.2945 H   0  0  0  0  0  0  0  0  0  0  0  0
   22.7226   46.0617   -6.4937 H   0  0  0  0  0  0  0  0  0  0  0  0
   21.9204   43.5120   -7.8496 H   0  0  0  0  0  0  0  0  0  0  0  0
   18.6651   37.5407   -6.3021 H   0  0  0  0  0  0  0  0  0  0  0  0
   17.5950   37.3147   -7.6765 H   0  0  0  0  0  0  0  0  0  0  0  0
   17.7384   38.9004   -6.9315 H   0  0  0  0  0  0  0  0  0  0  0  0
   19.9425   37.3895   -8.4114 H   0  0  0  0  0  0  0  0  0  0  0  0
   19.7793   39.0885  -10.1976 H   0  0  0  0  0  0  0  0  0  0  0  0
   18.4353   39.8684   -9.3676 H   0  0  0  0  0  0  0  0  0  0  0  0
   18.2577   38.2353   -9.9933 H   0  0  0  0  0  0  0  0  0  0  0  0
   19.2592   39.8807   -5.8567 H   0  0  0  0  0  0  0  0  0  0  0  0
   23.7175   40.3304   -7.8692 H   0  0  0  0  0  0  0  0  0  0  0  0
   22.0587   38.8454   -8.9957 H   0  0  0  0  0  0  0  0  0  0  0  0
   22.7617   40.6318   -3.4869 H   0  0  0  0  0  0  0  0  0  0  0  0
   22.1948   42.2086   -2.7215 H   0  0  0  0  0  0  0  0  0  0  0  0
   19.8469   41.3031   -2.5953 H   0  0  0  0  0  0  0  0  0  0  0  0
   20.4138   39.7263   -3.3607 H   0  0  0  0  0  0  0  0  0  0  0  0
   19.4889   42.8453   -4.9473 H   0  0  0  0  0  0  0  0  0  0  0  0
   21.4086   43.1398   -6.5737 H   0  0  0  0  0  0  0  0  0  0  0  0
   20.4448   44.5076   -6.0322 H   0  0  0  0  0  0  0  0  0  0  0  0
   23.9322   43.7343   -4.1117 H   0  0  0  0  0  0  0  0  0  0  0  0
   24.3636   43.5321   -6.8975 H   0  0  0  0  0  0  0  0  0  0  0  0
   24.5988   44.9541   -7.8456 H   0  0  0  0  0  0  0  0  0  0  0  0
   24.2798   42.9625   -9.7010 H   0  0  0  0  0  0  0  0  0  0  0  0
   22.6774   42.2434   -9.8254 H   0  0  0  0  0  0  0  0  0  0  0  0
   23.6848   41.8818   -8.4468 H   0  0  0  0  0  0  0  0  0  0  0  0
   22.1717   45.9046   -8.7601 H   0  0  0  0  0  0  0  0  0  0  0  0
   23.2032   45.2617   -9.9964 H   0  0  0  0  0  0  0  0  0  0  0  0
   21.2809   43.8018  -10.7790 H   0  0  0  0  0  0  0  0  0  0  0  0
   20.2614   44.4914   -9.5494 H   0  0  0  0  0  0  0  0  0  0  0  0
   21.6146   46.0591  -11.8033 H   0  0  0  0  0  0  0  0  0  0  0  0
   19.9994   45.4490  -11.8870 H   0  0  0  0  0  0  0  0  0  0  0  0
   19.1006   47.1680  -10.7306 H   0  0  0  0  0  0  0  0  0  0  0  0
   20.2232   47.0128   -9.4457 H   0  0  0  0  0  0  0  0  0  0  0  0
   21.8506   48.2458  -11.3573 H   0  0  0  0  0  0  0  0  0  0  0  0
   20.2862   48.8156  -11.8472 H   0  0  0  0  0  0  0  0  0  0  0  0
   19.9483   49.6038   -9.4008 H   0  0  0  0  0  0  0  0  0  0  0  0
   21.1232   50.4773  -10.3503 H   0  0  0  0  0  0  0  0  0  0  0  0
   21.8705   48.1832   -8.5128 H   0  0  0  0  0  0  0  0  0  0  0  0
   22.9993   49.2590   -9.3286 H   0  0  0  0  0  0  0  0  0  0  0  0
   23.7914   48.0453   -7.3321 H   0  0  0  0  0  0  0  0  0  0  0  0
   23.7774   48.6783   -3.0692 H   0  0  0  0  0  0  0  0  0  0  0  0
   25.2269   45.0873   -5.2689 H   0  0  0  0  0  0  0  0  0  0  0  0
   20.5236   43.4020   -3.8068 H   0  0  0  0  0  0  0  0  0  0  0  0
  1  2  1  0  0  0  0
  1 42  1  0  0  0  0
  1 43  1  0  0  0  0
  1 44  1  0  0  0  0
  2  3  1  0  0  0  0
  2  4  1  0  0  0  0
  2 45  1  0  0  0  0
  3 46  1  0  0  0  0
  3 47  1  0  0  0  0
  3 48  1  0  0  0  0
  4  9  1  0  0  0  0
  4  5  2  0  0  0  0
  5  6  1  0  0  0  0
  5 49  1  0  0  0  0
  6  7  2  0  0  0  0
  6 10  1  0  0  0  0
  7  8  1  0  0  0  0
  8  9  2  0  0  0  0
  8 50  1  0  0  0  0
  9 51  1  0  0  0  0
 10 12  1  0  0  0  0
 10 11  1  0  0  0  0
 10 13  1  0  0  0  0
 11 12  1  0  0  0  0
 11 52  1  0  0  0  0
 11 53  1  0  0  0  0
 12 54  1  0  0  0  0
 12 55  1  0  0  0  0
 13 14  1  0  0  0  0
 13 56  1  0  0  0  0
 13 82  1  0  0  0  0
 14 15  1  0  0  0  0
 14 57  1  0  0  0  0
 14 58  1  0  0  0  0
 15 39  1  1  0  0  0
 15 16  1  0  0  0  0
 15 17  1  0  0  0  0
 16 59  1  0  0  0  0
 17 40  1  6  0  0  0
 17 38  1  0  0  0  0
 17 18  1  0  0  0  0
 18 19  1  0  0  0  0
 18 60  1  0  0  0  0
 18 61  1  0  0  0  0
 19 41  1  1  0  0  0
 19 20  1  0  0  0  0
 19 21  1  0  0  0  0
 20 62  1  0  0  0  0
 20 63  1  0  0  0  0
 20 64  1  0  0  0  0
 21 22  1  0  0  0  0
 21 65  1  0  0  0  0
 21 66  1  0  0  0  0
 22 23  1  0  0  0  0
 22 67  1  0  0  0  0
 22 68  1  0  0  0  0
 23 24  1  0  0  0  0
 23 69  1  0  0  0  0
 23 70  1  0  0  0  0
 24 25  1  0  0  0  0
 24 71  1  0  0  0  0
 24 72  1  0  0  0  0
 25 26  1  0  0  0  0
 25 73  1  0  0  0  0
 25 74  1  0  0  0  0
 26 27  1  0  0  0  0
 26 75  1  0  0  0  0
 26 76  1  0  0  0  0
 27 28  1  0  0  0  0
 27 77  1  0  0  0  0
 27 78  1  0  0  0  0
 28 29  1  0  0  0  0
 29 35  1  0  0  0  0
 29 30  2  0  0  0  0
 30 31  1  0  0  0  0
 30 79  1  0  0  0  0
 31 32  2  0  0  0  0
 31 36  1  0  0  0  0
 32 33  1  0  0  0  0
 32 80  1  0  0  0  0
 33 34  1  0  0  0  0
 33 35  2  0  0  0  0
 36 37  2  0  0  0  0
 36 38  1  0  0  0  0
 38 81  1  0  0  0  0
M  CHG  1  13   1
M  END
>  <s_m_source_file>
BACE_52.smi

>  <i_m_source_file_index>
1

>  <i_lp_mmshare_version>
42013

>  <i_f3d_flags>
0

>  <s_epik_input>
W0NIM11bQ0hdKFtDSDNdKWMxW2NIXWMobltjSF1bY0hdMSlDMihbQ0gyXVtDSDJdMilbTkhdW0NIMl1bQ0BASF0oW09IXSlbQ0BASF0oW05IXUMoPU8pYyhbY0hdYzM0KVtjSF1jKENsKW40KVtDSDJdW0NASF0oW0NIM10pW0NIMl1bQ0gyXVtDSDJdW0NIMl1bQ0gyXVtDSDJdW0NIMl1PMw==

>  <s_epik_cmdline>
J2VwaWtfcHl0aG9uJywgJy1waCcsICc3LjAnLCAnLXRuJywgJzgnLCAnLW1hJywgJzIwMCcsICctaW1hZScsICc8aW5maWxlLm1hZT4nLCAnLW9tYWUnLCAnPG91dGZpbGUubWFlPic=

>  <r_lp_tautomer_probability>
1

>  <r_epik_Ionization_Penalty>
0.7499

>  <r_epik_Ionization_Penalty_Charging>
0.7485

>  <r_epik_Ionization_Penalty_Neutral>
0.0014

>  <r_epik_State_Penalty>
1.7619

>  <r_epik_Charging_Adjusted_Penalty>
2.51039

>  <i_epik_Tot_Q>
1

>  <i_epik_Tot_abs_Q>
1

>  <s_lp_Force_Field>
OPLS_2005

>  <r_lp_Energy>
33.2315

>  <b_lp_Chiralities_Consistent>
1

>  <s_lp_Variant>
BACE_52.smi:1-3

>  <chiral flag>
1

>  <version>
0

>  <s_i_glide_gridfile>
second_dock_grid_2

>  <i_i_glide_lignum>
101

>  <i_i_glide_rotatable_bonds>
7

>  <r_i_docking_score>
-1.12468

>  <r_i_glide_ligand_efficiency>
-0.0295967

>  <r_i_glide_ligand_efficiency_sa>
-0.0995034

>  <r_i_glide_ligand_efficiency_ln>
-0.242513

>  <r_glide_XP_GScore>
-2.88658

>  <r_i_glide_gscore>
-2.88658

>  <r_i_glide_evdw>
-32.4169

>  <r_i_glide_ecoul>
-11.5111

>  <r_i_glide_energy>
-43.928

>  <r_i_glide_einternal>
12.5493

>  <r_i_glide_emodel>
-56.4322

>  <r_glide_XP_HBond>
-0.7

>  <i_i_glide_confnum>
1

>  <i_i_glide_posenum>
6

>  <r_i_glide_eff_state_penalty>
1.7619

>  <i_glide_XP_PoseRank>
1

$$$$
