BACE_103.smi:1
 OpenBabel09291822493D
Structure written by MMmdl.
 75 78  0  0  1  0  0  0  0  0999 V2000
   25.6506   50.8024   -3.2696 C   0  0  0  0  0  0  0  0  0  0  0  0
   24.4452   50.1417   -2.5798 C   0  0  0  0  0  0  0  0  0  0  0  0
   24.9406   48.9708   -1.7018 C   0  0  0  0  0  0  0  0  0  0  0  0
   23.7893   51.1708   -1.6363 C   0  0  0  0  0  0  0  0  0  0  0  0
   23.4657   49.6358   -3.6524 C   0  0  0  0  0  0  0  0  0  0  0  0
   22.2529   50.3023   -3.9497 C   0  0  0  0  0  0  0  0  0  0  0  0
   21.3941   49.7592   -4.9236 C   0  0  0  0  0  0  0  0  0  0  0  0
   21.6660   48.6367   -5.6122 N   0  0  0  0  0  0  0  0  0  0  0  0
   22.8258   48.0026   -5.3433 C   0  0  0  0  0  0  0  0  0  0  0  0
   23.0818   46.7242   -6.1117 C   0  0  0  0  0  0  0  0  0  0  0  0
   22.6666   45.5442   -5.3525 N   0  0  0  0  0  0  0  0  0  0  0  0
   21.9038   44.5987   -6.1681 C   0  0  0  0  0  0  0  0  0  0  0  0
   21.5039   43.3485   -5.3651 C   0  0  1  0  0  0  0  0  0  0  0  0
   20.5108   43.7470   -4.4397 O   0  0  0  0  0  0  0  0  0  0  0  0
   20.9315   42.1662   -6.1914 C   0  0  2  0  0  0  0  0  0  0  0  0
   21.9511   41.4454   -7.1243 C   0  0  0  0  0  0  0  0  0  0  0  0
   21.3299   40.4805   -8.1339 C   0  0  0  0  0  0  0  0  0  0  0  0
   21.6213   40.6085   -9.5093 C   0  0  0  0  0  0  0  0  0  0  0  0
   20.9896   39.7724  -10.4502 C   0  0  0  0  0  0  0  0  0  0  0  0
   20.0519   38.8123  -10.0266 C   0  0  0  0  0  0  0  0  0  0  0  0
   19.7592   38.6691   -8.6506 C   0  0  0  0  0  0  0  0  0  0  0  0
   20.4249   39.4834   -7.7130 C   0  0  0  0  0  0  0  0  0  0  0  0
   18.8608   37.7502   -8.1643 O   0  0  0  0  0  0  0  0  0  0  0  0
   17.6255   37.5812   -8.8541 C   0  0  0  0  0  0  0  0  0  0  0  0
   16.7399   38.7963   -8.6756 C   0  0  0  0  0  0  0  0  0  0  0  0
   15.9014   38.9532   -7.6346 C   0  0  0  0  0  0  0  0  0  0  0  0
   15.0389   40.1660   -7.3236 C   0  0  0  0  0  0  0  0  0  0  0  0
   14.8664   41.1169   -8.4184 N   0  0  0  0  0  0  0  0  0  0  0  0
   15.7937   42.1401   -8.6484 C   0  0  0  0  0  0  0  0  0  0  0  0
   17.1005   42.1275   -8.1108 C   0  0  0  0  0  0  0  0  0  0  0  0
   17.9982   43.1640   -8.4501 C   0  0  0  0  0  0  0  0  0  0  0  0
   17.5360   44.1790   -9.3120 C   0  0  0  0  0  0  0  0  0  0  0  0
   16.2153   44.1163   -9.7907 C   0  0  0  0  0  0  0  0  0  0  0  0
   15.6598   45.3482  -10.8628 Cl  0  0  0  0  0  0  0  0  0  0  0  0
   15.3637   43.1213   -9.4695 N   0  0  0  0  0  0  0  0  0  0  0  0
   19.4306   43.1463   -7.9889 C   0  0  0  0  0  0  0  0  0  0  0  0
   20.3125   43.7147   -8.6350 O   0  0  0  0  0  0  0  0  0  0  0  0
   19.6576   42.4916   -6.8399 N   0  0  0  0  0  0  0  0  0  0  0  0
   23.7520   48.4619   -4.3877 C   0  0  0  0  0  0  0  0  0  0  0  0
   22.3643   42.9856   -4.8019 H   0  0  0  0  0  0  0  0  0  0  0  0
   20.6375   41.4092   -5.4629 H   0  0  0  0  0  0  0  0  0  0  0  0
   26.3724   51.1671   -2.5401 H   0  0  0  0  0  0  0  0  0  0  0  0
   25.3405   51.6511   -3.8801 H   0  0  0  0  0  0  0  0  0  0  0  0
   26.1730   50.0987   -3.9196 H   0  0  0  0  0  0  0  0  0  0  0  0
   25.5236   48.2496   -2.2723 H   0  0  0  0  0  0  0  0  0  0  0  0
   24.1069   48.4400   -1.2424 H   0  0  0  0  0  0  0  0  0  0  0  0
   25.5906   49.3239   -0.9011 H   0  0  0  0  0  0  0  0  0  0  0  0
   24.4390   51.4231   -0.7983 H   0  0  0  0  0  0  0  0  0  0  0  0
   22.8593   50.7709   -1.2400 H   0  0  0  0  0  0  0  0  0  0  0  0
   23.5513   52.1089   -2.1337 H   0  0  0  0  0  0  0  0  0  0  0  0
   21.9468   51.2012   -3.4385 H   0  0  0  0  0  0  0  0  0  0  0  0
   20.4598   50.2464   -5.1612 H   0  0  0  0  0  0  0  0  0  0  0  0
   22.5429   46.7903   -7.0585 H   0  0  0  0  0  0  0  0  0  0  0  0
   24.1393   46.6571   -6.3714 H   0  0  0  0  0  0  0  0  0  0  0  0
   23.4953   45.0719   -5.0034 H   0  0  0  0  0  0  0  0  0  0  0  0
   21.0118   45.0805   -6.5748 H   0  0  0  0  0  0  0  0  0  0  0  0
   22.5086   44.3058   -7.0266 H   0  0  0  0  0  0  0  0  0  0  0  0
   20.8602   44.4336   -3.8804 H   0  0  0  0  0  0  0  0  0  0  0  0
   22.5260   42.1866   -7.6785 H   0  0  0  0  0  0  0  0  0  0  0  0
   22.6744   40.8970   -6.5200 H   0  0  0  0  0  0  0  0  0  0  0  0
   22.3173   41.3591   -9.8552 H   0  0  0  0  0  0  0  0  0  0  0  0
   21.2169   39.8769  -11.5012 H   0  0  0  0  0  0  0  0  0  0  0  0
   19.5800   38.1801  -10.7634 H   0  0  0  0  0  0  0  0  0  0  0  0
   20.1955   39.3687   -6.6645 H   0  0  0  0  0  0  0  0  0  0  0  0
   17.7474   37.3475   -9.9121 H   0  0  0  0  0  0  0  0  0  0  0  0
   17.1243   36.7178   -8.4144 H   0  0  0  0  0  0  0  0  0  0  0  0
   16.8614   39.5809   -9.4057 H   0  0  0  0  0  0  0  0  0  0  0  0
   15.8394   38.1634   -6.9003 H   0  0  0  0  0  0  0  0  0  0  0  0
   14.0580   39.7939   -7.0350 H   0  0  0  0  0  0  0  0  0  0  0  0
   15.4283   40.6717   -6.4374 H   0  0  0  0  0  0  0  0  0  0  0  0
   13.9268   41.2050   -8.7861 H   0  0  0  0  0  0  0  0  0  0  0  0
   17.4188   41.3164   -7.4733 H   0  0  0  0  0  0  0  0  0  0  0  0
   18.1901   44.9826   -9.6173 H   0  0  0  0  0  0  0  0  0  0  0  0
   18.8383   42.1359   -6.3570 H   0  0  0  0  0  0  0  0  0  0  0  0
   24.6617   47.9043   -4.2314 H   0  0  0  0  0  0  0  0  0  0  0  0
  1  2  1  0  0  0  0
  1 42  1  0  0  0  0
  1 43  1  0  0  0  0
  1 44  1  0  0  0  0
  2  3  1  0  0  0  0
  2  4  1  0  0  0  0
  2  5  1  0  0  0  0
  3 45  1  0  0  0  0
  3 46  1  0  0  0  0
  3 47  1  0  0  0  0
  4 48  1  0  0  0  0
  4 49  1  0  0  0  0
  4 50  1  0  0  0  0
  5 39  1  0  0  0  0
  5  6  2  0  0  0  0
  6  7  1  0  0  0  0
  6 51  1  0  0  0  0
  7  8  2  0  0  0  0
  7 52  1  0  0  0  0
  8  9  1  0  0  0  0
  9 10  1  0  0  0  0
  9 39  2  0  0  0  0
 10 11  1  0  0  0  0
 10 53  1  0  0  0  0
 10 54  1  0  0  0  0
 11 12  1  0  0  0  0
 11 55  1  0  0  0  0
 12 13  1  0  0  0  0
 12 56  1  0  0  0  0
 12 57  1  0  0  0  0
 13 40  1  1  0  0  0
 13 14  1  0  0  0  0
 13 15  1  0  0  0  0
 14 58  1  0  0  0  0
 15 41  1  1  0  0  0
 15 38  1  0  0  0  0
 15 16  1  0  0  0  0
 16 17  1  0  0  0  0
 16 59  1  0  0  0  0
 16 60  1  0  0  0  0
 17 22  1  0  0  0  0
 17 18  2  0  0  0  0
 18 19  1  0  0  0  0
 18 61  1  0  0  0  0
 19 20  2  0  0  0  0
 19 62  1  0  0  0  0
 20 21  1  0  0  0  0
 20 63  1  0  0  0  0
 21 22  2  0  0  0  0
 21 23  1  0  0  0  0
 22 64  1  0  0  0  0
 23 24  1  0  0  0  0
 24 25  1  0  0  0  0
 24 65  1  0  0  0  0
 24 66  1  0  0  0  0
 25 26  2  0  0  0  0
 25 67  1  0  0  0  0
 26 27  1  0  0  0  0
 26 68  1  0  0  0  0
 27 28  1  0  0  0  0
 27 69  1  0  0  0  0
 27 70  1  0  0  0  0
 28 29  1  0  0  0  0
 28 71  1  0  0  0  0
 29 35  1  0  0  0  0
 29 30  2  0  0  0  0
 30 31  1  0  0  0  0
 30 72  1  0  0  0  0
 31 32  2  0  0  0  0
 31 36  1  0  0  0  0
 32 33  1  0  0  0  0
 32 73  1  0  0  0  0
 33 34  1  0  0  0  0
 33 35  2  0  0  0  0
 36 37  2  0  0  0  0
 36 38  1  0  0  0  0
 38 74  1  0  0  0  0
 39 75  1  0  0  0  0
M  END
>  <s_m_source_file>
BACE_103.smi

>  <i_m_source_file_index>
1

>  <i_lp_mmshare_version>
42013

>  <i_f3d_flags>
0

>  <s_epik_input>
W0NIM11DKFtDSDNdKShbQ0gzXSljMVtjSF1bY0hdbmMoW2NIXTEpW0NIMl1bTkhdW0NIMl1bQ0BASF0oW09IXSlbQ0BIXShbQ0gyXTIpW05IXUMoPU8pYyhbY0hdYyhDbCluMylbY0hdYzNbTkhdW0NIMl1cW0NIXT1bQ0hdXFtDSDJdT2MoW2NIXTQpW2NIXVtjSF1bY0hdYzI0

>  <s_epik_cmdline>
J2VwaWtfcHl0aG9uJywgJy1waCcsICc3LjAnLCAnLXRuJywgJzgnLCAnLW1hJywgJzIwMCcsICctaW1hZScsICc8aW5maWxlLm1hZT4nLCAnLW9tYWUnLCAnPG91dGZpbGUubWFlPic=

>  <r_lp_tautomer_probability>
1

>  <r_epik_Ionization_Penalty>
1.6227

>  <r_epik_Ionization_Penalty_Charging>
0.0000

>  <r_epik_Ionization_Penalty_Neutral>
1.6227

>  <r_epik_State_Penalty>
1.7208

>  <r_epik_Charging_Adjusted_Penalty>
1.72075

>  <i_epik_Tot_Q>
0

>  <i_epik_Tot_abs_Q>
0

>  <s_lp_Force_Field>
OPLS_2005

>  <r_lp_Energy>
31.2268

>  <b_lp_Chiralities_Consistent>
1

>  <s_lp_Variant>
BACE_103.smi:1-2

>  <chiral flag>
1

>  <version>
0

>  <s_i_glide_gridfile>
second_dock_grid_2

>  <i_i_glide_lignum>
211

>  <i_i_glide_rotatable_bonds>
7

>  <r_i_docking_score>
-2.66077

>  <r_i_glide_ligand_efficiency>
-0.068225

>  <r_i_glide_ligand_efficiency_sa>
-0.231365

>  <r_i_glide_ligand_efficiency_ln>
-0.570545

>  <r_glide_XP_GScore>
-4.38157

>  <r_i_glide_gscore>
-4.38157

>  <r_i_glide_evdw>
-42.5422

>  <r_i_glide_ecoul>
-12.5043

>  <r_i_glide_energy>
-55.0465

>  <r_i_glide_einternal>
9.43169

>  <r_i_glide_emodel>
-70.8678

>  <r_glide_XP_HBond>
-1.89

>  <i_i_glide_confnum>
1

>  <i_i_glide_posenum>
4

>  <r_i_glide_eff_state_penalty>
1.7208

>  <i_glide_XP_PoseRank>
1

$$$$
