BACE_132.smi:1
 OpenBabel09291822493D
Structure written by MMmdl.
 80 84  0  0  1  0  0  0  0  0999 V2000
   18.9982   48.4395   -5.7934 C   0  0  0  0  0  0  0  0  0  0  0  0
   20.1829   47.6050   -6.3009 C   0  0  0  0  0  0  0  0  0  0  0  0
   20.7328   48.1551   -7.6276 C   0  0  0  0  0  0  0  0  0  0  0  0
   19.8291   46.1328   -6.4295 C   0  0  0  0  0  0  0  0  0  0  0  0
   18.7536   45.7204   -7.2464 C   0  0  0  0  0  0  0  0  0  0  0  0
   18.4637   44.3525   -7.4061 C   0  0  0  0  0  0  0  0  0  0  0  0
   17.3554   43.9170   -8.3382 C   0  0  0  0  0  0  0  0  0  0  0  0
   16.0448   44.4847   -8.0402 N   0  0  0  0  0  0  0  0  0  0  0  0
   15.0594   44.3658   -9.1249 C   0  0  0  0  0  0  0  0  0  0  0  0
   14.6123   42.9157   -9.4684 C   0  0  1  0  0  0  0  0  0  0  0  0
   13.2078   42.9704   -9.6387 O   0  0  0  0  0  0  0  0  0  0  0  0
   15.1672   42.3291  -10.8029 C   0  0  2  0  0  0  0  0  0  0  0  0
   14.7430   40.8536  -11.0232 C   0  0  0  0  0  0  0  0  0  0  0  0
   15.4232   39.8732  -10.0859 C   0  0  0  0  0  0  0  0  0  0  0  0
   16.7356   39.4400  -10.3614 C   0  0  0  0  0  0  0  0  0  0  0  0
   17.4127   38.5947   -9.4650 C   0  0  0  0  0  0  0  0  0  0  0  0
   18.8477   38.2018   -9.7407 C   0  0  0  0  0  0  0  0  0  0  0  0
   19.8258   38.9486   -8.8184 C   0  0  0  0  0  0  0  0  0  0  0  0
   21.2765   38.9232   -9.3210 C   0  0  0  0  0  0  0  0  0  0  0  0
   21.5573   39.9408  -10.4392 C   0  0  0  0  0  0  0  0  0  0  0  0
   21.6189   41.2536   -9.8945 O   0  0  0  0  0  0  0  0  0  0  0  0
   20.8853   42.2463  -10.4983 C   0  0  0  0  0  0  0  0  0  0  0  0
   19.5394   42.0839  -10.9026 C   0  0  0  0  0  0  0  0  0  0  0  0
   18.8212   43.1732  -11.4532 C   0  0  0  0  0  0  0  0  0  0  0  0
   19.4707   44.4129  -11.6340 C   0  0  0  0  0  0  0  0  0  0  0  0
   20.8111   44.5868  -11.2311 C   0  0  0  0  0  0  0  0  0  0  0  0
   21.5017   43.5013  -10.6497 C   0  0  0  0  0  0  0  0  0  0  0  0
   21.4611   45.8833  -11.3707 C   0  0  0  0  0  0  0  0  0  0  0  0
   20.9426   47.0262  -11.8176 N   0  0  0  0  0  0  0  0  0  0  0  0
   21.9780   47.9481  -11.7498 C   0  0  0  0  0  0  0  0  0  0  0  0
   23.0862   47.3066  -11.2575 C   0  0  0  0  0  0  0  0  0  0  0  0
   22.7728   45.9976  -11.0155 O   0  0  0  0  0  0  0  0  0  0  0  0
   17.3652   43.0542  -11.7964 C   0  0  0  0  0  0  0  0  0  0  0  0
   16.9003   43.5824  -12.8067 O   0  0  0  0  0  0  0  0  0  0  0  0
   16.6235   42.4351  -10.8662 N   0  0  0  0  0  0  0  0  0  0  0  0
   16.7547   38.1494   -8.3032 C   0  0  0  0  0  0  0  0  0  0  0  0
   15.4318   38.5499   -8.0402 C   0  0  0  0  0  0  0  0  0  0  0  0
   14.7629   39.4099   -8.9300 C   0  0  0  0  0  0  0  0  0  0  0  0
   19.2592   43.3871   -6.7594 C   0  0  0  0  0  0  0  0  0  0  0  0
   20.3169   43.7910   -5.9221 C   0  0  0  0  0  0  0  0  0  0  0  0
   20.6036   45.1600   -5.7615 C   0  0  0  0  0  0  0  0  0  0  0  0
   14.8231   42.2568   -8.6262 H   0  0  0  0  0  0  0  0  0  0  0  0
   14.7407   42.9185  -11.6165 H   0  0  0  0  0  0  0  0  0  0  0  0
   18.6299   48.0622   -4.8406 H   0  0  0  0  0  0  0  0  0  0  0  0
   18.1652   48.4389   -6.4950 H   0  0  0  0  0  0  0  0  0  0  0  0
   19.3010   49.4730   -5.6412 H   0  0  0  0  0  0  0  0  0  0  0  0
   20.9798   47.6913   -5.5595 H   0  0  0  0  0  0  0  0  0  0  0  0
   21.5985   47.5797   -7.9571 H   0  0  0  0  0  0  0  0  0  0  0  0
   21.0431   49.1945   -7.5270 H   0  0  0  0  0  0  0  0  0  0  0  0
   19.9866   48.1059   -8.4214 H   0  0  0  0  0  0  0  0  0  0  0  0
   18.1618   46.4497   -7.7785 H   0  0  0  0  0  0  0  0  0  0  0  0
   17.6733   44.2576   -9.3190 H   0  0  0  0  0  0  0  0  0  0  0  0
   17.3029   42.8264   -8.3553 H   0  0  0  0  0  0  0  0  0  0  0  0
   15.6837   44.0195   -7.1993 H   0  0  0  0  0  0  0  0  0  0  0  0
   14.1824   44.9377   -8.8205 H   0  0  0  0  0  0  0  0  0  0  0  0
   15.4237   44.8658  -10.0237 H   0  0  0  0  0  0  0  0  0  0  0  0
   12.8216   42.1989   -9.2328 H   0  0  0  0  0  0  0  0  0  0  0  0
   13.6617   40.7477  -10.9337 H   0  0  0  0  0  0  0  0  0  0  0  0
   14.9866   40.5506  -12.0399 H   0  0  0  0  0  0  0  0  0  0  0  0
   17.2344   39.7770  -11.2559 H   0  0  0  0  0  0  0  0  0  0  0  0
   18.9586   37.1251   -9.6118 H   0  0  0  0  0  0  0  0  0  0  0  0
   19.0723   38.4061  -10.7864 H   0  0  0  0  0  0  0  0  0  0  0  0
   19.5187   39.9892   -8.7013 H   0  0  0  0  0  0  0  0  0  0  0  0
   19.7715   38.5118   -7.8199 H   0  0  0  0  0  0  0  0  0  0  0  0
   21.9525   39.1319   -8.4903 H   0  0  0  0  0  0  0  0  0  0  0  0
   21.5255   37.9185   -9.6601 H   0  0  0  0  0  0  0  0  0  0  0  0
   22.5453   39.7466  -10.8543 H   0  0  0  0  0  0  0  0  0  0  0  0
   20.8586   39.8346  -11.2689 H   0  0  0  0  0  0  0  0  0  0  0  0
   19.0479   41.1354  -10.7493 H   0  0  0  0  0  0  0  0  0  0  0  0
   18.9266   45.2465  -12.0527 H   0  0  0  0  0  0  0  0  0  0  0  0
   22.5218   43.6209  -10.3138 H   0  0  0  0  0  0  0  0  0  0  0  0
   21.8473   48.9763  -12.0495 H   0  0  0  0  0  0  0  0  0  0  0  0
   24.0954   47.6169  -11.0352 H   0  0  0  0  0  0  0  0  0  0  0  0
   17.1227   42.0261  -10.0871 H   0  0  0  0  0  0  0  0  0  0  0  0
   17.2628   37.4970   -7.6074 H   0  0  0  0  0  0  0  0  0  0  0  0
   14.9338   38.2038   -7.1423 H   0  0  0  0  0  0  0  0  0  0  0  0
   13.7520   39.7244   -8.7135 H   0  0  0  0  0  0  0  0  0  0  0  0
   19.0546   42.3333   -6.8829 H   0  0  0  0  0  0  0  0  0  0  0  0
   20.9123   43.0483   -5.4102 H   0  0  0  0  0  0  0  0  0  0  0  0
   21.4298   45.4518   -5.1293 H   0  0  0  0  0  0  0  0  0  0  0  0
  1  2  1  0  0  0  0
  1 44  1  0  0  0  0
  1 45  1  0  0  0  0
  1 46  1  0  0  0  0
  2  3  1  0  0  0  0
  2  4  1  0  0  0  0
  2 47  1  0  0  0  0
  3 48  1  0  0  0  0
  3 49  1  0  0  0  0
  3 50  1  0  0  0  0
  4 41  1  0  0  0  0
  4  5  2  0  0  0  0
  5  6  1  0  0  0  0
  5 51  1  0  0  0  0
  6  7  1  0  0  0  0
  6 39  2  0  0  0  0
  7  8  1  0  0  0  0
  7 52  1  0  0  0  0
  7 53  1  0  0  0  0
  8  9  1  0  0  0  0
  8 54  1  0  0  0  0
  9 10  1  0  0  0  0
  9 55  1  0  0  0  0
  9 56  1  0  0  0  0
 10 42  1  1  0  0  0
 10 11  1  0  0  0  0
 10 12  1  0  0  0  0
 11 57  1  0  0  0  0
 12 43  1  6  0  0  0
 12 35  1  0  0  0  0
 12 13  1  0  0  0  0
 13 14  1  0  0  0  0
 13 58  1  0  0  0  0
 13 59  1  0  0  0  0
 14 38  1  0  0  0  0
 14 15  2  0  0  0  0
 15 16  1  0  0  0  0
 15 60  1  0  0  0  0
 16 17  1  0  0  0  0
 16 36  2  0  0  0  0
 17 18  1  0  0  0  0
 17 61  1  0  0  0  0
 17 62  1  0  0  0  0
 18 19  1  0  0  0  0
 18 63  1  0  0  0  0
 18 64  1  0  0  0  0
 19 20  1  0  0  0  0
 19 65  1  0  0  0  0
 19 66  1  0  0  0  0
 20 21  1  0  0  0  0
 20 67  1  0  0  0  0
 20 68  1  0  0  0  0
 21 22  1  0  0  0  0
 22 27  1  0  0  0  0
 22 23  2  0  0  0  0
 23 24  1  0  0  0  0
 23 69  1  0  0  0  0
 24 25  2  0  0  0  0
 24 33  1  0  0  0  0
 25 26  1  0  0  0  0
 25 70  1  0  0  0  0
 26 27  2  0  0  0  0
 26 28  1  0  0  0  0
 27 71  1  0  0  0  0
 28 32  1  0  0  0  0
 28 29  2  0  0  0  0
 29 30  1  0  0  0  0
 30 31  2  0  0  0  0
 30 72  1  0  0  0  0
 31 32  1  0  0  0  0
 31 73  1  0  0  0  0
 33 34  2  0  0  0  0
 33 35  1  0  0  0  0
 35 74  1  0  0  0  0
 36 37  1  0  0  0  0
 36 75  1  0  0  0  0
 37 38  2  0  0  0  0
 37 76  1  0  0  0  0
 38 77  1  0  0  0  0
 39 40  1  0  0  0  0
 39 78  1  0  0  0  0
 40 41  2  0  0  0  0
 40 79  1  0  0  0  0
 41 80  1  0  0  0  0
M  END
>  <s_m_source_file>
BACE_132.smi

>  <i_m_source_file_index>
1

>  <i_lp_mmshare_version>
42013

>  <i_f3d_flags>
0

>  <s_epik_input>
W0NIM11bQ0hdKFtDSDNdKWMxW2NIXWMoW2NIXVtjSF1bY0hdMSlbQ0gyXVtOSF1bQ0gyXVtDQEBIXShbT0hdKVtDQEhdKFtDSDJdMilbTkhdQyg9TyljKFtjSF1jKFtjSF0zKS1jNG5bY0hdW2NIXW80KVtjSF1jM09bQ0gyXVtDSDJdW0NIMl1bQ0gyXWMoW2NIXWMyNSlbY0hdW2NIXVtjSF01

>  <s_epik_cmdline>
J2VwaWtfcHl0aG9uJywgJy1waCcsICc3LjAnLCAnLXRuJywgJzgnLCAnLW1hJywgJzIwMCcsICctaW1hZScsICc8aW5maWxlLm1hZT4nLCAnLW9tYWUnLCAnPG91dGZpbGUubWFlPic=

>  <r_lp_tautomer_probability>
1

>  <r_epik_Ionization_Penalty>
2.0439

>  <r_epik_Ionization_Penalty_Charging>
0.0000

>  <r_epik_Ionization_Penalty_Neutral>
2.0439

>  <r_epik_State_Penalty>
2.1759

>  <r_epik_Charging_Adjusted_Penalty>
2.17586

>  <i_epik_Tot_Q>
0

>  <i_epik_Tot_abs_Q>
0

>  <s_lp_Force_Field>
OPLS_2005

>  <r_lp_Energy>
40.2452

>  <b_lp_Chiralities_Consistent>
1

>  <s_lp_Variant>
BACE_132.smi:1-2

>  <chiral flag>
1

>  <version>
0

>  <s_i_glide_gridfile>
second_dock_grid_2

>  <i_i_glide_lignum>
271

>  <i_i_glide_rotatable_bonds>
8

>  <r_i_docking_score>
0.876177

>  <r_i_glide_ligand_efficiency>
0.0213702

>  <r_i_glide_ligand_efficiency_sa>
0.073689

>  <r_i_glide_ligand_efficiency_ln>
0.185884

>  <r_glide_XP_GScore>
-1.29972

>  <r_i_glide_gscore>
-1.29972

>  <r_i_glide_evdw>
-38.1559

>  <r_i_glide_ecoul>
-13.9864

>  <r_i_glide_energy>
-52.1424

>  <r_i_glide_einternal>
4.44055

>  <r_i_glide_emodel>
-74.646

>  <r_glide_XP_HBond>
-1.89

>  <i_i_glide_confnum>
1

>  <i_i_glide_posenum>
11

>  <r_i_glide_eff_state_penalty>
2.1759

>  <i_glide_XP_PoseRank>
1

$$$$
