BACE_41.smi:1
 OpenBabel09291822493D
Structure written by MMmdl.
 83 85  0  0  1  0  0  0  0  0999 V2000
   22.6923   40.0831   -4.1128 C   0  0  0  0  0  0  0  0  0  0  0  0
   21.8877   40.3940   -5.3825 C   0  0  0  0  0  0  0  0  0  0  0  0
   22.5707   39.8282   -6.6320 C   0  0  0  0  0  0  0  0  0  0  0  0
   21.5326   41.8649   -5.5861 C   0  0  0  0  0  0  0  0  0  0  0  0
   22.2635   42.9183   -4.9928 C   0  0  0  0  0  0  0  0  0  0  0  0
   21.8965   44.2553   -5.2395 C   0  0  0  0  0  0  0  0  0  0  0  0
   20.7938   44.5532   -6.0642 C   0  0  0  0  0  0  0  0  0  0  0  0
   20.0637   43.5116   -6.6730 C   0  0  0  0  0  0  0  0  0  0  0  0
   18.9140   43.8300   -7.6154 C   0  0  0  0  0  0  0  0  0  0  0  0
   17.6596   43.1403   -7.2396 N   0  3  0  0  0  0  0  0  0  0  0  0
   17.2480   42.0736   -8.1605 C   0  0  0  0  0  0  0  0  0  0  0  0
   15.8121   41.5793   -7.8754 C   0  0  1  0  0  0  0  0  0  0  0  0
   14.9337   42.6725   -8.0400 O   0  0  0  0  0  0  0  0  0  0  0  0
   15.3062   40.3578   -8.7049 C   0  0  2  0  0  0  0  0  0  0  0  0
   16.3739   39.3424   -9.1490 C   0  0  0  0  0  0  0  0  0  0  0  0
   16.8105   38.2821   -8.1167 C   0  0  2  0  0  0  0  0  0  0  0  0
   17.3948   38.8158   -6.7936 C   0  0  0  0  0  0  0  0  0  0  0  0
   17.7114   37.2241   -8.7887 C   0  0  0  0  0  0  0  0  0  0  0  0
   18.8648   37.7602   -9.6682 C   0  0  0  0  0  0  0  0  0  0  0  0
   20.0446   38.4146   -8.9281 C   0  0  0  0  0  0  0  0  0  0  0  0
   21.2571   38.6757   -9.8455 C   0  0  0  0  0  0  0  0  0  0  0  0
   20.9322   39.4092  -11.1580 C   0  0  0  0  0  0  0  0  0  0  0  0
   20.2879   40.7832  -10.9322 C   0  0  0  0  0  0  0  0  0  0  0  0
   19.9284   41.4632  -12.2527 C   0  0  0  0  0  0  0  0  0  0  0  0
   19.3546   42.7819  -12.0399 N   0  0  0  0  0  0  0  0  0  0  0  0
   18.0195   42.9883  -11.7018 C   0  0  0  0  0  0  0  0  0  0  0  0
   17.0696   41.9464  -11.6161 C   0  0  0  0  0  0  0  0  0  0  0  0
   15.7736   42.2658  -11.1619 C   0  0  0  0  0  0  0  0  0  0  0  0
   15.4576   43.6153  -10.9057 C   0  0  0  0  0  0  0  0  0  0  0  0
   16.4665   44.5818  -11.0487 C   0  0  0  0  0  0  0  0  0  0  0  0
   16.1860   46.0405  -10.7608 C   0  0  0  0  0  0  0  0  0  0  0  0
   17.7228   44.2738  -11.4277 N   0  0  0  0  0  0  0  0  0  0  0  0
   14.7177   41.2175  -11.0407 C   0  0  0  0  0  0  0  0  0  0  0  0
   14.0599   40.9492  -12.0400 O   0  0  0  0  0  0  0  0  0  0  0  0
   14.4404   40.6702   -9.8477 N   0  0  0  0  0  0  0  0  0  0  0  0
   20.4454   42.1759   -6.4320 C   0  0  0  0  0  0  0  0  0  0  0  0
   15.7639   41.3059   -6.8200 H   0  0  0  0  0  0  0  0  0  0  0  0
   14.6200   39.8188   -8.0479 H   0  0  0  0  0  0  0  0  0  0  0  0
   15.9023   37.7511   -7.8267 H   0  0  0  0  0  0  0  0  0  0  0  0
   22.1601   40.4014   -3.2172 H   0  0  0  0  0  0  0  0  0  0  0  0
   23.6713   40.5591   -4.1151 H   0  0  0  0  0  0  0  0  0  0  0  0
   22.8590   39.0082   -4.0382 H   0  0  0  0  0  0  0  0  0  0  0  0
   20.9351   39.8730   -5.2791 H   0  0  0  0  0  0  0  0  0  0  0  0
   22.0201   40.1658   -7.5023 H   0  0  0  0  0  0  0  0  0  0  0  0
   22.5492   38.7394   -6.6300 H   0  0  0  0  0  0  0  0  0  0  0  0
   23.6070   40.1491   -6.7639 H   0  0  0  0  0  0  0  0  0  0  0  0
   23.1108   42.7207   -4.3543 H   0  0  0  0  0  0  0  0  0  0  0  0
   22.4659   45.0546   -4.7901 H   0  0  0  0  0  0  0  0  0  0  0  0
   20.5340   45.5859   -6.2439 H   0  0  0  0  0  0  0  0  0  0  0  0
   18.7185   44.9021   -7.5971 H   0  0  0  0  0  0  0  0  0  0  0  0
   19.2153   43.5953   -8.6383 H   0  0  0  0  0  0  0  0  0  0  0  0
   17.7587   42.7297   -6.3157 H   0  0  0  0  0  0  0  0  0  0  0  0
   17.3254   42.4742   -9.1579 H   0  0  0  0  0  0  0  0  0  0  0  0
   17.9827   41.2776   -8.0841 H   0  0  0  0  0  0  0  0  0  0  0  0
   14.5058   42.7879   -7.1972 H   0  0  0  0  0  0  0  0  0  0  0  0
   15.9767   38.7759   -9.9939 H   0  0  0  0  0  0  0  0  0  0  0  0
   17.2230   39.8779   -9.5596 H   0  0  0  0  0  0  0  0  0  0  0  0
   18.2490   39.4720   -6.9211 H   0  0  0  0  0  0  0  0  0  0  0  0
   17.7250   37.9941   -6.1586 H   0  0  0  0  0  0  0  0  0  0  0  0
   16.6379   39.3475   -6.2189 H   0  0  0  0  0  0  0  0  0  0  0  0
   18.0710   36.5238   -8.0378 H   0  0  0  0  0  0  0  0  0  0  0  0
   17.0742   36.6237   -9.4382 H   0  0  0  0  0  0  0  0  0  0  0  0
   19.2601   36.9501  -10.2585 H   0  0  0  0  0  0  0  0  0  0  0  0
   18.4758   38.4261  -10.4341 H   0  0  0  0  0  0  0  0  0  0  0  0
   19.7320   39.3556   -8.4839 H   0  0  0  0  0  0  0  0  0  0  0  0
   20.3551   37.7708   -8.1029 H   0  0  0  0  0  0  0  0  0  0  0  0
   22.0217   39.2470   -9.3328 H   0  0  0  0  0  0  0  0  0  0  0  0
   21.7503   37.7317  -10.0402 H   0  0  0  0  0  0  0  0  0  0  0  0
   21.8541   39.5464  -11.7239 H   0  0  0  0  0  0  0  0  0  0  0  0
   20.2906   38.7933  -11.7889 H   0  0  0  0  0  0  0  0  0  0  0  0
   19.3880   40.6867  -10.3272 H   0  0  0  0  0  0  0  0  0  0  0  0
   20.9726   41.4152  -10.3650 H   0  0  0  0  0  0  0  0  0  0  0  0
   20.8333   41.5804  -12.8464 H   0  0  0  0  0  0  0  0  0  0  0  0
   19.2554   40.8387  -12.8410 H   0  0  0  0  0  0  0  0  0  0  0  0
   19.9710   43.5808  -12.0278 H   0  0  0  0  0  0  0  0  0  0  0  0
   17.3198   40.9210  -11.8445 H   0  0  0  0  0  0  0  0  0  0  0  0
   14.4640   43.8930  -10.5825 H   0  0  0  0  0  0  0  0  0  0  0  0
   15.3196   46.3797  -11.3288 H   0  0  0  0  0  0  0  0  0  0  0  0
   17.0348   46.6712  -11.0303 H   0  0  0  0  0  0  0  0  0  0  0  0
   15.9803   46.1814   -9.6998 H   0  0  0  0  0  0  0  0  0  0  0  0
   13.5593   40.1710   -9.8253 H   0  0  0  0  0  0  0  0  0  0  0  0
   19.9043   41.3681   -6.9003 H   0  0  0  0  0  0  0  0  0  0  0  0
   16.8975   43.8033   -7.2152 H   0  0  0  0  0  0  0  0  0  0  0  0
  1  2  1  0  0  0  0
  1 40  1  0  0  0  0
  1 41  1  0  0  0  0
  1 42  1  0  0  0  0
  2  3  1  0  0  0  0
  2  4  1  0  0  0  0
  2 43  1  0  0  0  0
  3 44  1  0  0  0  0
  3 45  1  0  0  0  0
  3 46  1  0  0  0  0
  4 36  1  0  0  0  0
  4  5  2  0  0  0  0
  5  6  1  0  0  0  0
  5 47  1  0  0  0  0
  6  7  2  0  0  0  0
  6 48  1  0  0  0  0
  7  8  1  0  0  0  0
  7 49  1  0  0  0  0
  8  9  1  0  0  0  0
  8 36  2  0  0  0  0
  9 10  1  0  0  0  0
  9 50  1  0  0  0  0
  9 51  1  0  0  0  0
 10 11  1  0  0  0  0
 10 52  1  0  0  0  0
 10 83  1  0  0  0  0
 11 12  1  0  0  0  0
 11 53  1  0  0  0  0
 11 54  1  0  0  0  0
 12 37  1  1  0  0  0
 12 13  1  0  0  0  0
 12 14  1  0  0  0  0
 13 55  1  0  0  0  0
 14 38  1  1  0  0  0
 14 35  1  0  0  0  0
 14 15  1  0  0  0  0
 15 16  1  0  0  0  0
 15 56  1  0  0  0  0
 15 57  1  0  0  0  0
 16 39  1  1  0  0  0
 16 17  1  0  0  0  0
 16 18  1  0  0  0  0
 17 58  1  0  0  0  0
 17 59  1  0  0  0  0
 17 60  1  0  0  0  0
 18 19  1  0  0  0  0
 18 61  1  0  0  0  0
 18 62  1  0  0  0  0
 19 20  1  0  0  0  0
 19 63  1  0  0  0  0
 19 64  1  0  0  0  0
 20 21  1  0  0  0  0
 20 65  1  0  0  0  0
 20 66  1  0  0  0  0
 21 22  1  0  0  0  0
 21 67  1  0  0  0  0
 21 68  1  0  0  0  0
 22 23  1  0  0  0  0
 22 69  1  0  0  0  0
 22 70  1  0  0  0  0
 23 24  1  0  0  0  0
 23 71  1  0  0  0  0
 23 72  1  0  0  0  0
 24 25  1  0  0  0  0
 24 73  1  0  0  0  0
 24 74  1  0  0  0  0
 25 26  1  0  0  0  0
 25 75  1  0  0  0  0
 26 32  1  0  0  0  0
 26 27  2  0  0  0  0
 27 28  1  0  0  0  0
 27 76  1  0  0  0  0
 28 29  2  0  0  0  0
 28 33  1  0  0  0  0
 29 30  1  0  0  0  0
 29 77  1  0  0  0  0
 30 31  1  0  0  0  0
 30 32  2  0  0  0  0
 31 78  1  0  0  0  0
 31 79  1  0  0  0  0
 31 80  1  0  0  0  0
 33 34  2  0  0  0  0
 33 35  1  0  0  0  0
 35 81  1  0  0  0  0
 36 82  1  0  0  0  0
M  CHG  1  10   1
M  END
>  <s_m_source_file>
BACE_41.smi

>  <i_m_source_file_index>
1

>  <i_lp_mmshare_version>
42013

>  <i_f3d_flags>
0

>  <s_epik_input>
W0NIM11bQ0hdKFtDSDNdKWMxW2NIXVtjSF1bY0hdYyhbY0hdMSlbQ0gyXVtOSF1bQ0gyXVtDQEBIXShbT0hdKVtDQEBIXShbTkhdQyg9TyljKFtjSF1jMjMpW2NIXWMobjMpW0NIM10pW0NIMl1bQ0BIXShbQ0gzXSlbQ0gyXVtDSDJdW0NIMl1bQ0gyXVtDSDJdW0NIMl1bQ0gyXVtOSF0y

>  <s_epik_cmdline>
J2VwaWtfcHl0aG9uJywgJy1waCcsICc3LjAnLCAnLXRuJywgJzgnLCAnLW1hJywgJzIwMCcsICctaW1hZScsICc8aW5maWxlLm1hZT4nLCAnLW9tYWUnLCAnPG91dGZpbGUubWFlPic=

>  <r_lp_tautomer_probability>
1

>  <r_epik_Ionization_Penalty>
0.0295

>  <r_epik_Ionization_Penalty_Charging>
0.0173

>  <r_epik_Ionization_Penalty_Neutral>
0.0121

>  <r_epik_State_Penalty>
0.0228

>  <r_epik_Charging_Adjusted_Penalty>
0.0401499

>  <i_epik_Tot_Q>
1

>  <i_epik_Tot_abs_Q>
1

>  <s_lp_Force_Field>
OPLS_2005

>  <r_lp_Energy>
32.9497

>  <b_lp_Chiralities_Consistent>
1

>  <s_lp_Variant>
BACE_41.smi:1-1

>  <chiral flag>
1

>  <version>
0

>  <s_i_glide_gridfile>
second_dock_grid_2

>  <i_i_glide_lignum>
73

>  <i_i_glide_rotatable_bonds>
7

>  <r_i_docking_score>
-6.78193

>  <r_i_glide_ligand_efficiency>
-0.188387

>  <r_i_glide_ligand_efficiency_sa>
-0.62204

>  <r_i_glide_ligand_efficiency_ln>
-1.47963

>  <r_glide_XP_GScore>
-6.80473

>  <r_i_glide_gscore>
-6.80473

>  <r_i_glide_evdw>
-32.9802

>  <r_i_glide_ecoul>
-22.1128

>  <r_i_glide_energy>
-55.093

>  <r_i_glide_einternal>
9.22115

>  <r_i_glide_emodel>
-69.3946

>  <r_glide_XP_HBond>
-0.7

>  <i_i_glide_confnum>
1

>  <i_i_glide_posenum>
3

>  <r_i_glide_eff_state_penalty>
0.0228

>  <i_glide_XP_PoseRank>
1

$$$$
