BACE_64.smi:1
 OpenBabel09291822493D
Structure written by MMmdl.
 83 85  0  0  1  0  0  0  0  0999 V2000
   20.6749   41.4787   -2.2141 C   0  0  0  0  0  0  0  0  0  0  0  0
   21.7650   41.1834   -3.2589 C   0  0  0  0  0  0  0  0  0  0  0  0
   22.5314   42.4412   -3.7122 C   0  0  0  0  0  0  0  0  0  0  0  0
   21.7336   43.3567   -4.5830 C   0  0  0  0  0  0  0  0  0  0  0  0
   20.4592   43.3056   -5.0664 C   0  0  0  0  0  0  0  0  0  0  0  0
   20.3497   44.4669   -5.8767 C   0  0  0  0  0  0  0  0  0  0  0  0
   19.1760   44.8914   -6.7195 C   0  0  0  0  0  0  0  0  0  0  0  0
   18.3967   43.7476   -7.2111 N   0  0  0  0  0  0  0  0  0  0  0  0
   19.1170   42.8298   -8.0971 C   0  0  0  0  0  0  0  0  0  0  0  0
   19.3063   43.3893   -9.5161 C   0  0  1  0  0  0  0  0  0  0  0  0
   20.3687   44.3295   -9.5256 O   0  0  0  0  0  0  0  0  0  0  0  0
   19.6354   42.2556  -10.5259 C   0  0  2  0  0  0  0  0  0  0  0  0
   21.1395   41.8561  -10.5132 C   0  0  0  0  0  0  0  0  0  0  0  0
   21.5390   40.4473  -11.0227 C   0  0  2  0  0  0  0  0  0  0  0  0
   20.6723   39.8849  -12.1626 C   0  0  0  0  0  0  0  0  0  0  0  0
   21.8229   39.4439   -9.8779 C   0  0  0  0  0  0  0  0  0  0  0  0
   20.6220   39.0615   -8.9931 C   0  0  0  0  0  0  0  0  0  0  0  0
   19.9145   37.7826   -9.4605 C   0  0  0  0  0  0  0  0  0  0  0  0
   18.5628   37.5203   -8.7840 C   0  0  0  0  0  0  0  0  0  0  0  0
   17.4806   38.5108   -9.2284 C   0  0  0  0  0  0  0  0  0  0  0  0
   16.0863   38.1486   -8.7023 C   0  0  0  0  0  0  0  0  0  0  0  0
   15.0769   39.2928   -8.8604 C   0  0  0  0  0  0  0  0  0  0  0  0
   14.8571   39.6524  -10.2548 N   0  0  0  0  0  0  0  0  0  0  0  0
   15.2561   40.9618  -10.5313 C   0  0  0  0  0  0  0  0  0  0  0  0
   14.4346   42.0248  -10.1116 C   0  0  0  0  0  0  0  0  0  0  0  0
   14.7930   43.3538  -10.4015 C   0  0  0  0  0  0  0  0  0  0  0  0
   13.8977   44.4851   -9.9421 C   0  0  0  0  0  0  0  0  0  0  0  0
   14.0605   44.8329   -8.5710 O   0  0  0  0  0  0  0  0  0  0  0  0
   15.3468   45.3391   -8.2594 C   0  0  0  0  0  0  0  0  0  0  0  0
   15.9693   43.6182  -11.1339 C   0  0  0  0  0  0  0  0  0  0  0  0
   16.8107   42.5657  -11.5368 C   0  0  0  0  0  0  0  0  0  0  0  0
   16.4519   41.2326  -11.2341 C   0  0  0  0  0  0  0  0  0  0  0  0
   18.0178   42.8763  -12.3716 C   0  0  0  0  0  0  0  0  0  0  0  0
   17.8578   43.3502  -13.4924 O   0  0  0  0  0  0  0  0  0  0  0  0
   19.2448   42.6524  -11.8765 N   0  0  0  0  0  0  0  0  0  0  0  0
   21.4542   45.1930   -5.8416 N   0  0  0  0  0  0  0  0  0  0  0  0
   22.3471   44.4858   -5.0215 O   0  0  0  0  0  0  0  0  0  0  0  0
   18.3930   43.9132   -9.7927 H   0  0  0  0  0  0  0  0  0  0  0  0
   19.0388   41.3842  -10.2687 H   0  0  0  0  0  0  0  0  0  0  0  0
   22.5175   40.5910  -11.4782 H   0  0  0  0  0  0  0  0  0  0  0  0
   20.2541   40.5564   -1.8153 H   0  0  0  0  0  0  0  0  0  0  0  0
   19.8517   42.0518   -2.6338 H   0  0  0  0  0  0  0  0  0  0  0  0
   21.0731   42.0573   -1.3817 H   0  0  0  0  0  0  0  0  0  0  0  0
   22.4793   40.4793   -2.8425 H   0  0  0  0  0  0  0  0  0  0  0  0
   21.3301   40.6739   -4.1226 H   0  0  0  0  0  0  0  0  0  0  0  0
   22.8888   42.9894   -2.8391 H   0  0  0  0  0  0  0  0  0  0  0  0
   23.4224   42.1320   -4.2611 H   0  0  0  0  0  0  0  0  0  0  0  0
   19.7220   42.5370   -4.9036 H   0  0  0  0  0  0  0  0  0  0  0  0
   18.5266   45.5336   -6.1230 H   0  0  0  0  0  0  0  0  0  0  0  0
   19.5079   45.5175   -7.5462 H   0  0  0  0  0  0  0  0  0  0  0  0
   18.0494   43.2163   -6.4153 H   0  0  0  0  0  0  0  0  0  0  0  0
   20.0693   42.5147   -7.6704 H   0  0  0  0  0  0  0  0  0  0  0  0
   18.5228   41.9199   -8.1648 H   0  0  0  0  0  0  0  0  0  0  0  0
   20.4679   44.6629  -10.4015 H   0  0  0  0  0  0  0  0  0  0  0  0
   21.6965   42.5959  -11.0917 H   0  0  0  0  0  0  0  0  0  0  0  0
   21.5311   41.9629   -9.5016 H   0  0  0  0  0  0  0  0  0  0  0  0
   19.6451   39.6976  -11.8491 H   0  0  0  0  0  0  0  0  0  0  0  0
   21.0837   38.9504  -12.5347 H   0  0  0  0  0  0  0  0  0  0  0  0
   20.6458   40.5723  -13.0078 H   0  0  0  0  0  0  0  0  0  0  0  0
   22.2853   38.5420  -10.2785 H   0  0  0  0  0  0  0  0  0  0  0  0
   22.5874   39.8801   -9.2344 H   0  0  0  0  0  0  0  0  0  0  0  0
   20.9753   38.8901   -7.9737 H   0  0  0  0  0  0  0  0  0  0  0  0
   19.9326   39.8954   -8.9136 H   0  0  0  0  0  0  0  0  0  0  0  0
   19.7782   37.7787  -10.5399 H   0  0  0  0  0  0  0  0  0  0  0  0
   20.5814   36.9523   -9.2401 H   0  0  0  0  0  0  0  0  0  0  0  0
   18.2332   36.5113   -9.0327 H   0  0  0  0  0  0  0  0  0  0  0  0
   18.6678   37.5502   -7.6978 H   0  0  0  0  0  0  0  0  0  0  0  0
   17.7383   39.5147   -8.8912 H   0  0  0  0  0  0  0  0  0  0  0  0
   17.4500   38.5430  -10.3194 H   0  0  0  0  0  0  0  0  0  0  0  0
   15.7217   37.2489   -9.1953 H   0  0  0  0  0  0  0  0  0  0  0  0
   16.1562   37.9079   -7.6418 H   0  0  0  0  0  0  0  0  0  0  0  0
   14.1203   38.9802   -8.4365 H   0  0  0  0  0  0  0  0  0  0  0  0
   15.4010   40.1494   -8.2658 H   0  0  0  0  0  0  0  0  0  0  0  0
   13.8709   39.5205  -10.4526 H   0  0  0  0  0  0  0  0  0  0  0  0
   13.5255   41.8214   -9.5634 H   0  0  0  0  0  0  0  0  0  0  0  0
   14.0644   45.3496  -10.5844 H   0  0  0  0  0  0  0  0  0  0  0  0
   12.8603   44.1901  -10.0939 H   0  0  0  0  0  0  0  0  0  0  0  0
   15.3522   45.7270   -7.2401 H   0  0  0  0  0  0  0  0  0  0  0  0
   15.6342   46.1511   -8.9283 H   0  0  0  0  0  0  0  0  0  0  0  0
   16.0985   44.5530   -8.3204 H   0  0  0  0  0  0  0  0  0  0  0  0
   16.2313   44.6399  -11.3701 H   0  0  0  0  0  0  0  0  0  0  0  0
   17.0731   40.4152  -11.5724 H   0  0  0  0  0  0  0  0  0  0  0  0
   20.0112   42.8514  -12.4993 H   0  0  0  0  0  0  0  0  0  0  0  0
  1  2  1  0  0  0  0
  1 41  1  0  0  0  0
  1 42  1  0  0  0  0
  1 43  1  0  0  0  0
  2  3  1  0  0  0  0
  2 44  1  0  0  0  0
  2 45  1  0  0  0  0
  3  4  1  0  0  0  0
  3 46  1  0  0  0  0
  3 47  1  0  0  0  0
  4 37  1  0  0  0  0
  4  5  2  0  0  0  0
  5  6  1  0  0  0  0
  5 48  1  0  0  0  0
  6  7  1  0  0  0  0
  6 36  2  0  0  0  0
  7  8  1  0  0  0  0
  7 49  1  0  0  0  0
  7 50  1  0  0  0  0
  8  9  1  0  0  0  0
  8 51  1  0  0  0  0
  9 10  1  0  0  0  0
  9 52  1  0  0  0  0
  9 53  1  0  0  0  0
 10 38  1  6  0  0  0
 10 11  1  0  0  0  0
 10 12  1  0  0  0  0
 11 54  1  0  0  0  0
 12 39  1  1  0  0  0
 12 35  1  0  0  0  0
 12 13  1  0  0  0  0
 13 14  1  0  0  0  0
 13 55  1  0  0  0  0
 13 56  1  0  0  0  0
 14 40  1  6  0  0  0
 14 15  1  0  0  0  0
 14 16  1  0  0  0  0
 15 57  1  0  0  0  0
 15 58  1  0  0  0  0
 15 59  1  0  0  0  0
 16 17  1  0  0  0  0
 16 60  1  0  0  0  0
 16 61  1  0  0  0  0
 17 18  1  0  0  0  0
 17 62  1  0  0  0  0
 17 63  1  0  0  0  0
 18 19  1  0  0  0  0
 18 64  1  0  0  0  0
 18 65  1  0  0  0  0
 19 20  1  0  0  0  0
 19 66  1  0  0  0  0
 19 67  1  0  0  0  0
 20 21  1  0  0  0  0
 20 68  1  0  0  0  0
 20 69  1  0  0  0  0
 21 22  1  0  0  0  0
 21 70  1  0  0  0  0
 21 71  1  0  0  0  0
 22 23  1  0  0  0  0
 22 72  1  0  0  0  0
 22 73  1  0  0  0  0
 23 24  1  0  0  0  0
 23 74  1  0  0  0  0
 24 32  1  0  0  0  0
 24 25  2  0  0  0  0
 25 26  1  0  0  0  0
 25 75  1  0  0  0  0
 26 27  1  0  0  0  0
 26 30  2  0  0  0  0
 27 28  1  0  0  0  0
 27 76  1  0  0  0  0
 27 77  1  0  0  0  0
 28 29  1  0  0  0  0
 29 78  1  0  0  0  0
 29 79  1  0  0  0  0
 29 80  1  0  0  0  0
 30 31  1  0  0  0  0
 30 81  1  0  0  0  0
 31 32  2  0  0  0  0
 31 33  1  0  0  0  0
 32 82  1  0  0  0  0
 33 34  2  0  0  0  0
 33 35  1  0  0  0  0
 35 83  1  0  0  0  0
 36 37  1  0  0  0  0
M  END
>  <s_m_source_file>
BACE_64.smi

>  <i_m_source_file_index>
1

>  <i_lp_mmshare_version>
42013

>  <i_f3d_flags>
0

>  <s_epik_input>
W0NIM11bQ0gyXVtDSDJdYzFbY0hdYyhubzEpW0NIMl1bTkhdW0NIMl1bQ0BASF0oW09IXSlbQ0BASF0oW05IXUMoPU8pYyhbY0hdMilbY0hdYyhbY0hdYzIzKVtDSDJdT1tDSDNdKVtDSDJdW0NASF0oW0NIM10pW0NIMl1bQ0gyXVtDSDJdW0NIMl1bQ0gyXVtDSDJdW0NIMl1bTkhdMw==

>  <s_epik_cmdline>
J2VwaWtfcHl0aG9uJywgJy1waCcsICc3LjAnLCAnLXRuJywgJzgnLCAnLW1hJywgJzIwMCcsICctaW1hZScsICc8aW5maWxlLm1hZT4nLCAnLW9tYWUnLCAnPG91dGZpbGUubWFlPic=

>  <r_epik_Ionization_Penalty>
0.2730

>  <r_epik_Ionization_Penalty_Charging>
0.0000

>  <r_epik_Ionization_Penalty_Neutral>
0.2730

>  <r_epik_State_Penalty>
0.2646

>  <r_epik_Charging_Adjusted_Penalty>
0.264593

>  <i_epik_Tot_Q>
0

>  <i_epik_Tot_abs_Q>
0

>  <s_lp_Force_Field>
OPLS_2005

>  <r_lp_Energy>
39.1756

>  <b_lp_Chiralities_Consistent>
1

>  <s_lp_Variant>
BACE_64.smi:1-1

>  <chiral flag>
1

>  <version>
0

>  <s_i_glide_gridfile>
second_dock_grid_2

>  <i_i_glide_lignum>
127

>  <i_i_glide_rotatable_bonds>
10

>  <r_i_docking_score>
-5.2165

>  <r_i_glide_ligand_efficiency>
-0.140987

>  <r_i_glide_ligand_efficiency_sa>
-0.469798

>  <r_i_glide_ligand_efficiency_ln>
-1.13134

>  <r_glide_XP_GScore>
-5.4811

>  <r_i_glide_gscore>
-5.4811

>  <r_i_glide_evdw>
-43.3843

>  <r_i_glide_ecoul>
-10.9729

>  <r_i_glide_energy>
-54.3572

>  <r_i_glide_einternal>
6.96972

>  <r_i_glide_emodel>
-74.4621

>  <r_glide_XP_HBond>
-1.1576

>  <i_i_glide_confnum>
1

>  <i_i_glide_posenum>
5

>  <r_i_glide_eff_state_penalty>
0.2646

>  <i_glide_XP_PoseRank>
1

$$$$
