BACE_20.smi:1
 OpenBabel09291822493D
Structure written by MMmdl.
 78 79  0  0  1  0  0  0  0  0999 V2000
   12.1883   42.9811  -10.6427 C   0  0  0  0  0  0  0  0  0  0  0  0
   13.3814   43.8888  -10.9605 C   0  0  0  0  0  0  0  0  0  0  0  0
   14.7267   43.1507  -10.8950 C   0  0  0  0  0  0  0  0  0  0  0  0
   15.9111   44.1006  -11.1175 C   0  0  0  0  0  0  0  0  0  0  0  0
   17.1815   43.3873  -11.0439 N   0  0  0  0  0  0  0  0  0  0  0  0
   17.9759   43.0832  -12.0812 C   0  0  0  0  0  0  0  0  0  0  0  0
   17.6576   43.3500  -13.2400 O   0  0  0  0  0  0  0  0  0  0  0  0
   19.3474   42.4262  -11.7985 C   0  0  2  0  0  0  0  0  0  0  0  0
   19.7087   41.4077  -12.8982 C   0  0  0  0  0  0  0  0  0  0  0  0
   19.5272   41.8630  -10.3493 C   0  0  0  0  0  0  0  0  0  0  0  0
   20.9667   41.8657   -9.7701 C   0  0  2  0  0  0  0  0  0  0  0  0
   21.4913   43.1708   -9.9547 O   0  0  0  0  0  0  0  0  0  0  0  0
   21.9287   40.7231  -10.2583 C   0  0  2  0  0  0  0  0  0  0  0  0
   21.9092   39.4205   -9.4059 C   0  0  0  0  0  0  0  0  0  0  0  0
   20.5399   38.9431   -8.9455 C   0  0  0  0  0  0  0  0  0  0  0  0
   20.1123   39.1966   -7.6224 C   0  0  0  0  0  0  0  0  0  0  0  0
   18.8579   38.7367   -7.1802 C   0  0  0  0  0  0  0  0  0  0  0  0
   18.0230   38.0149   -8.0558 C   0  0  0  0  0  0  0  0  0  0  0  0
   18.4446   37.7595   -9.3753 C   0  0  0  0  0  0  0  0  0  0  0  0
   19.6979   38.2220   -9.8189 C   0  0  0  0  0  0  0  0  0  0  0  0
   23.3153   41.1813  -10.4386 N   0  0  0  0  0  0  0  0  0  0  0  0
   24.0960   41.6802   -9.4604 C   0  0  0  0  0  0  0  0  0  0  0  0
   23.7339   41.7979   -8.2895 O   0  0  0  0  0  0  0  0  0  0  0  0
   25.4414   42.1925   -9.8802 C   0  0  0  0  0  0  0  0  0  0  0  0
   25.9788   43.3519   -9.2781 C   0  0  0  0  0  0  0  0  0  0  0  0
   27.2714   43.7729   -9.6384 C   0  0  0  0  0  0  0  0  0  0  0  0
   27.8309   44.8891   -9.0018 N   0  0  0  0  0  0  0  0  0  0  0  0
   29.2174   45.2799   -9.2344 C   0  0  0  0  0  0  0  0  0  0  0  0
   30.2163   44.3691   -8.4995 C   0  0  0  0  0  0  0  0  0  0  0  0
   31.6869   44.7402   -8.7470 C   0  0  0  0  0  0  0  0  0  0  0  0
   32.1678   44.4069  -10.1669 C   0  0  0  0  0  0  0  0  0  0  0  0
   28.0090   43.1251  -10.5656 N   0  0  0  0  0  0  0  0  0  0  0  0
   27.5032   42.0097  -11.1411 C   0  0  0  0  0  0  0  0  0  0  0  0
   26.2354   41.4987  -10.8139 C   0  0  0  0  0  0  0  0  0  0  0  0
   28.2749   41.3496  -12.0703 O   0  0  0  0  0  0  0  0  0  0  0  0
   29.6016   41.8091  -12.2996 C   0  0  0  0  0  0  0  0  0  0  0  0
   20.0206   43.2694  -11.9256 H   0  0  0  0  0  0  0  0  0  0  0  0
   20.8833   41.7612   -8.6869 H   0  0  0  0  0  0  0  0  0  0  0  0
   21.6084   40.4213  -11.2500 H   0  0  0  0  0  0  0  0  0  0  0  0
   11.2524   43.5368  -10.6891 H   0  0  0  0  0  0  0  0  0  0  0  0
   12.2724   42.5568   -9.6402 H   0  0  0  0  0  0  0  0  0  0  0  0
   12.1242   42.1552  -11.3525 H   0  0  0  0  0  0  0  0  0  0  0  0
   13.2515   44.3272  -11.9515 H   0  0  0  0  0  0  0  0  0  0  0  0
   13.3924   44.7176  -10.2522 H   0  0  0  0  0  0  0  0  0  0  0  0
   14.8271   42.6691   -9.9212 H   0  0  0  0  0  0  0  0  0  0  0  0
   14.7437   42.3517  -11.6393 H   0  0  0  0  0  0  0  0  0  0  0  0
   15.8048   44.6260  -12.0657 H   0  0  0  0  0  0  0  0  0  0  0  0
   15.9130   44.8705  -10.3440 H   0  0  0  0  0  0  0  0  0  0  0  0
   17.5051   43.1409  -10.1195 H   0  0  0  0  0  0  0  0  0  0  0  0
   20.7850   41.2711  -12.9777 H   0  0  0  0  0  0  0  0  0  0  0  0
   19.3932   41.7500  -13.8807 H   0  0  0  0  0  0  0  0  0  0  0  0
   19.2507   40.4347  -12.7129 H   0  0  0  0  0  0  0  0  0  0  0  0
   18.9565   42.4525   -9.6344 H   0  0  0  0  0  0  0  0  0  0  0  0
   19.0937   40.8657  -10.2862 H   0  0  0  0  0  0  0  0  0  0  0  0
   21.8285   43.2329  -10.8360 H   0  0  0  0  0  0  0  0  0  0  0  0
   22.3838   38.6156   -9.9683 H   0  0  0  0  0  0  0  0  0  0  0  0
   22.5218   39.5371   -8.5104 H   0  0  0  0  0  0  0  0  0  0  0  0
   20.7462   39.7433   -6.9384 H   0  0  0  0  0  0  0  0  0  0  0  0
   18.5312   38.9328   -6.1677 H   0  0  0  0  0  0  0  0  0  0  0  0
   17.0639   37.6589   -7.7073 H   0  0  0  0  0  0  0  0  0  0  0  0
   17.8010   37.2039  -10.0437 H   0  0  0  0  0  0  0  0  0  0  0  0
   20.0134   38.0214  -10.8332 H   0  0  0  0  0  0  0  0  0  0  0  0
   23.7038   41.1094  -11.3740 H   0  0  0  0  0  0  0  0  0  0  0  0
   25.4105   43.8880   -8.5331 H   0  0  0  0  0  0  0  0  0  0  0  0
   27.3160   45.3441   -8.2615 H   0  0  0  0  0  0  0  0  0  0  0  0
   29.4183   45.2843  -10.3062 H   0  0  0  0  0  0  0  0  0  0  0  0
   29.3414   46.3099   -8.8989 H   0  0  0  0  0  0  0  0  0  0  0  0
   30.0166   44.4106   -7.4288 H   0  0  0  0  0  0  0  0  0  0  0  0
   30.0628   43.3317   -8.7953 H   0  0  0  0  0  0  0  0  0  0  0  0
   31.8442   45.8002   -8.5418 H   0  0  0  0  0  0  0  0  0  0  0  0
   32.3119   44.1995   -8.0344 H   0  0  0  0  0  0  0  0  0  0  0  0
   33.2257   44.6422  -10.2828 H   0  0  0  0  0  0  0  0  0  0  0  0
   31.6203   44.9737  -10.9199 H   0  0  0  0  0  0  0  0  0  0  0  0
   32.0377   43.3476  -10.3886 H   0  0  0  0  0  0  0  0  0  0  0  0
   25.8906   40.5707  -11.2398 H   0  0  0  0  0  0  0  0  0  0  0  0
   30.0821   41.1590  -13.0277 H   0  0  0  0  0  0  0  0  0  0  0  0
   30.1950   41.7861  -11.3823 H   0  0  0  0  0  0  0  0  0  0  0  0
   29.6064   42.8250  -12.7006 H   0  0  0  0  0  0  0  0  0  0  0  0
  1  2  1  0  0  0  0
  1 40  1  0  0  0  0
  1 41  1  0  0  0  0
  1 42  1  0  0  0  0
  2  3  1  0  0  0  0
  2 43  1  0  0  0  0
  2 44  1  0  0  0  0
  3  4  1  0  0  0  0
  3 45  1  0  0  0  0
  3 46  1  0  0  0  0
  4  5  1  0  0  0  0
  4 47  1  0  0  0  0
  4 48  1  0  0  0  0
  5  6  1  0  0  0  0
  5 49  1  0  0  0  0
  6  7  2  0  0  0  0
  6  8  1  0  0  0  0
  8 37  1  6  0  0  0
  8  9  1  0  0  0  0
  8 10  1  0  0  0  0
  9 50  1  0  0  0  0
  9 51  1  0  0  0  0
  9 52  1  0  0  0  0
 10 11  1  0  0  0  0
 10 53  1  0  0  0  0
 10 54  1  0  0  0  0
 11 38  1  1  0  0  0
 11 12  1  0  0  0  0
 11 13  1  0  0  0  0
 12 55  1  0  0  0  0
 13 39  1  6  0  0  0
 13 14  1  0  0  0  0
 13 21  1  0  0  0  0
 14 15  1  0  0  0  0
 14 56  1  0  0  0  0
 14 57  1  0  0  0  0
 15 20  1  0  0  0  0
 15 16  2  0  0  0  0
 16 17  1  0  0  0  0
 16 58  1  0  0  0  0
 17 18  2  0  0  0  0
 17 59  1  0  0  0  0
 18 19  1  0  0  0  0
 18 60  1  0  0  0  0
 19 20  2  0  0  0  0
 19 61  1  0  0  0  0
 20 62  1  0  0  0  0
 21 22  1  0  0  0  0
 21 63  1  0  0  0  0
 22 23  2  0  0  0  0
 22 24  1  0  0  0  0
 24 34  1  0  0  0  0
 24 25  2  0  0  0  0
 25 26  1  0  0  0  0
 25 64  1  0  0  0  0
 26 27  1  0  0  0  0
 26 32  2  0  0  0  0
 27 28  1  0  0  0  0
 27 65  1  0  0  0  0
 28 29  1  0  0  0  0
 28 66  1  0  0  0  0
 28 67  1  0  0  0  0
 29 30  1  0  0  0  0
 29 68  1  0  0  0  0
 29 69  1  0  0  0  0
 30 31  1  0  0  0  0
 30 70  1  0  0  0  0
 30 71  1  0  0  0  0
 31 72  1  0  0  0  0
 31 73  1  0  0  0  0
 31 74  1  0  0  0  0
 32 33  1  0  0  0  0
 33 34  2  0  0  0  0
 33 35  1  0  0  0  0
 34 75  1  0  0  0  0
 35 36  1  0  0  0  0
 36 76  1  0  0  0  0
 36 77  1  0  0  0  0
 36 78  1  0  0  0  0
M  END
>  <s_m_source_file>
BACE_20.smi

>  <i_m_source_file_index>
1

>  <i_lp_mmshare_version>
42013

>  <i_f3d_flags>
0

>  <s_epik_input>
W0NIM11bQ0gyXVtDSDJdW0NIMl1bTkhdQyg9TylbQ0BIXShbQ0gzXSlbQ0gyXVtDQEhdKFtPSF0pW0NASF0oW0NIMl1jMVtjSF1bY0hdW2NIXVtjSF1bY0hdMSlbTkhdQyg9TyljMltjSF1jKG5jKFtjSF0yKU9bQ0gzXSlbTkhdW0NIMl1bQ0gyXVtDSDJdW0NIM10=

>  <s_epik_cmdline>
J2VwaWtfcHl0aG9uJywgJy1waCcsICc3LjAnLCAnLXRuJywgJzgnLCAnLW1hJywgJzIwMCcsICctaW1hZScsICc8aW5maWxlLm1hZT4nLCAnLW9tYWUnLCAnPG91dGZpbGUubWFlPic=

>  <r_lp_tautomer_probability>
1

>  <r_epik_Ionization_Penalty>
0.0000

>  <r_epik_Ionization_Penalty_Charging>
0.0000

>  <r_epik_Ionization_Penalty_Neutral>
0.0000

>  <r_epik_State_Penalty>
-0.0000

>  <r_epik_Charging_Adjusted_Penalty>
0

>  <i_epik_Tot_Q>
0

>  <i_epik_Tot_abs_Q>
0

>  <s_lp_Force_Field>
OPLS_2005

>  <r_lp_Energy>
15.1762

>  <b_lp_Chiralities_Consistent>
1

>  <s_lp_Variant>
BACE_20.smi:1-1

>  <chiral flag>
1

>  <version>
0

>  <s_i_glide_gridfile>
second_dock_grid_2

>  <i_i_glide_lignum>
31

>  <i_i_glide_rotatable_bonds>
19

>  <r_i_docking_score>
-5.53372

>  <r_i_glide_ligand_efficiency>
-0.153715

>  <r_i_glide_ligand_efficiency_sa>
-0.507554

>  <r_i_glide_ligand_efficiency_ln>
-1.20731

>  <r_glide_XP_GScore>
-5.53372

>  <r_i_glide_gscore>
-5.53372

>  <r_i_glide_evdw>
-42.4409

>  <r_i_glide_ecoul>
-8.40727

>  <r_i_glide_energy>
-50.8481

>  <r_i_glide_einternal>
4.39935

>  <r_i_glide_emodel>
-73.5029

>  <r_glide_XP_HBond>
-1.23635

>  <i_i_glide_confnum>
1

>  <i_i_glide_posenum>
4

>  <r_i_glide_eff_state_penalty>
-0

>  <i_glide_XP_PoseRank>
1

$$$$
