BACE_123.smi:1
 OpenBabel09291822493D
Structure written by MMmdl.
 84 87  0  0  1  0  0  0  0  0999 V2000
   18.7546   47.5382  -13.6063 C   0  0  0  0  0  0  0  0  0  0  0  0
   19.1596   47.5673  -12.1208 C   0  0  0  0  0  0  0  0  0  0  0  0
   19.1730   49.0075  -11.5866 C   0  0  0  0  0  0  0  0  0  0  0  0
   18.2679   46.6651  -11.2450 C   0  0  0  0  0  0  0  0  0  0  0  0
   18.3152   45.2041  -11.6480 C   0  0  0  0  0  0  0  0  0  0  0  0
   19.3833   44.3810  -11.2396 C   0  0  0  0  0  0  0  0  0  0  0  0
   19.4083   43.0218  -11.6389 C   0  0  0  0  0  0  0  0  0  0  0  0
   18.3393   42.5836  -12.4542 C   0  0  0  0  0  0  0  0  0  0  0  0
   17.2997   43.3535  -12.8401 N   0  0  0  0  0  0  0  0  0  0  0  0
   17.2932   44.6373  -12.4322 C   0  0  0  0  0  0  0  0  0  0  0  0
   20.5225   42.0406  -11.2197 C   0  0  0  0  0  0  0  0  0  0  0  0
   21.3856   41.6417  -12.4402 C   0  0  0  0  0  0  0  0  0  0  0  0
   19.8518   40.7696  -10.6588 C   0  0  0  0  0  0  0  0  0  0  0  0
   21.3659   42.6784  -10.1836 N   0  0  0  0  0  0  0  0  0  0  0  0
   22.6856   42.1391   -9.7966 C   0  0  0  0  0  0  0  0  0  0  0  0
   22.7064   40.8179   -8.9798 C   0  0  1  0  0  0  0  0  0  0  0  0
   24.0825   40.5500   -8.8363 O   0  0  0  0  0  0  0  0  0  0  0  0
   22.0795   40.8182   -7.5458 C   0  0  2  0  0  0  0  0  0  0  0  0
   21.7044   39.3913   -7.0610 C   0  0  0  0  0  0  0  0  0  0  0  0
   20.3563   38.8887   -7.5611 C   0  0  0  0  0  0  0  0  0  0  0  0
   19.1797   39.1858   -6.8425 C   0  0  0  0  0  0  0  0  0  0  0  0
   17.9109   38.8167   -7.3346 C   0  0  0  0  0  0  0  0  0  0  0  0
   17.8322   38.0992   -8.5520 C   0  0  0  0  0  0  0  0  0  0  0  0
   19.0032   37.7901   -9.2663 C   0  0  0  0  0  0  0  0  0  0  0  0
   20.2635   38.1574   -8.7614 C   0  0  0  0  0  0  0  0  0  0  0  0
   16.8204   39.2142   -6.5925 O   0  0  0  0  0  0  0  0  0  0  0  0
   15.5094   39.1623   -7.1532 C   0  0  0  0  0  0  0  0  0  0  0  0
   15.3365   40.1831   -8.2958 C   0  0  0  0  0  0  0  0  0  0  0  0
   15.6249   41.6315   -7.8706 C   0  0  0  0  0  0  0  0  0  0  0  0
   16.0594   42.5019   -9.0619 C   0  0  0  0  0  0  0  0  0  0  0  0
   16.3493   43.8783   -8.6851 N   0  0  0  0  0  0  0  0  0  0  0  0
   17.5184   44.2426   -7.9983 C   0  0  0  0  0  0  0  0  0  0  0  0
   18.5454   43.3262   -7.6645 C   0  0  0  0  0  0  0  0  0  0  0  0
   19.7116   43.7590   -6.9875 C   0  0  0  0  0  0  0  0  0  0  0  0
   19.8215   45.1188   -6.6176 C   0  0  0  0  0  0  0  0  0  0  0  0
   18.8032   46.0331   -6.9419 C   0  0  0  0  0  0  0  0  0  0  0  0
   17.6615   45.5967   -7.6388 C   0  0  0  0  0  0  0  0  0  0  0  0
   20.8368   42.8114   -6.6621 C   0  0  0  0  0  0  0  0  0  0  0  0
   21.6689   43.0989   -5.8027 O   0  0  0  0  0  0  0  0  0  0  0  0
   20.9297   41.7223   -7.4424 N   0  0  0  0  0  0  0  0  0  0  0  0
   22.3311   39.9920   -9.5708 H   0  0  0  0  0  0  0  0  0  0  0  0
   22.8553   41.1826   -6.8695 H   0  0  0  0  0  0  0  0  0  0  0  0
   18.8590   46.5389  -14.0297 H   0  0  0  0  0  0  0  0  0  0  0  0
   19.3855   48.2034  -14.1972 H   0  0  0  0  0  0  0  0  0  0  0  0
   17.7191   47.8537  -13.7423 H   0  0  0  0  0  0  0  0  0  0  0  0
   20.1819   47.1935  -12.0517 H   0  0  0  0  0  0  0  0  0  0  0  0
   19.5124   49.0395  -10.5507 H   0  0  0  0  0  0  0  0  0  0  0  0
   18.1799   49.4550  -11.6251 H   0  0  0  0  0  0  0  0  0  0  0  0
   19.8457   49.6362  -12.1706 H   0  0  0  0  0  0  0  0  0  0  0  0
   17.2345   47.0135  -11.2736 H   0  0  0  0  0  0  0  0  0  0  0  0
   18.5816   46.7373  -10.2029 H   0  0  0  0  0  0  0  0  0  0  0  0
   20.1652   44.8136  -10.6328 H   0  0  0  0  0  0  0  0  0  0  0  0
   18.3138   41.5769  -12.8384 H   0  0  0  0  0  0  0  0  0  0  0  0
   16.4547   45.2351  -12.7597 H   0  0  0  0  0  0  0  0  0  0  0  0
   22.0599   40.8231  -12.1857 H   0  0  0  0  0  0  0  0  0  0  0  0
   22.0167   42.4515  -12.8183 H   0  0  0  0  0  0  0  0  0  0  0  0
   20.7689   41.2773  -13.2595 H   0  0  0  0  0  0  0  0  0  0  0  0
   20.5642   39.9664  -10.5497 H   0  0  0  0  0  0  0  0  0  0  0  0
   19.1018   40.3421  -11.3210 H   0  0  0  0  0  0  0  0  0  0  0  0
   19.3622   40.9468   -9.7010 H   0  0  0  0  0  0  0  0  0  0  0  0
   20.8189   42.7773   -9.3347 H   0  0  0  0  0  0  0  0  0  0  0  0
   23.1892   42.8988   -9.1988 H   0  0  0  0  0  0  0  0  0  0  0  0
   23.3113   42.0269  -10.6827 H   0  0  0  0  0  0  0  0  0  0  0  0
   24.2814   39.7012   -9.2285 H   0  0  0  0  0  0  0  0  0  0  0  0
   22.4797   38.6768   -7.3336 H   0  0  0  0  0  0  0  0  0  0  0  0
   21.6729   39.3870   -5.9706 H   0  0  0  0  0  0  0  0  0  0  0  0
   19.2458   39.7469   -5.9214 H   0  0  0  0  0  0  0  0  0  0  0  0
   16.8828   37.7956   -8.9656 H   0  0  0  0  0  0  0  0  0  0  0  0
   18.9304   37.3041  -10.2241 H   0  0  0  0  0  0  0  0  0  0  0  0
   21.1535   37.9170   -9.3241 H   0  0  0  0  0  0  0  0  0  0  0  0
   15.2617   38.1515   -7.4786 H   0  0  0  0  0  0  0  0  0  0  0  0
   14.8058   39.3978   -6.3534 H   0  0  0  0  0  0  0  0  0  0  0  0
   15.9890   39.9176   -9.1270 H   0  0  0  0  0  0  0  0  0  0  0  0
   14.3219   40.1176   -8.6926 H   0  0  0  0  0  0  0  0  0  0  0  0
   14.7415   42.0498   -7.3862 H   0  0  0  0  0  0  0  0  0  0  0  0
   16.4051   41.6448   -7.1096 H   0  0  0  0  0  0  0  0  0  0  0  0
   16.9294   42.0703   -9.5581 H   0  0  0  0  0  0  0  0  0  0  0  0
   15.2626   42.5177   -9.8057 H   0  0  0  0  0  0  0  0  0  0  0  0
   15.6092   44.5555   -8.7784 H   0  0  0  0  0  0  0  0  0  0  0  0
   18.4380   42.2852   -7.9281 H   0  0  0  0  0  0  0  0  0  0  0  0
   20.6978   45.4716   -6.0919 H   0  0  0  0  0  0  0  0  0  0  0  0
   18.9015   47.0718   -6.6641 H   0  0  0  0  0  0  0  0  0  0  0  0
   16.8904   46.3097   -7.8877 H   0  0  0  0  0  0  0  0  0  0  0  0
   20.1529   41.5165   -8.0510 H   0  0  0  0  0  0  0  0  0  0  0  0
  1  2  1  0  0  0  0
  1 43  1  0  0  0  0
  1 44  1  0  0  0  0
  1 45  1  0  0  0  0
  2  3  1  0  0  0  0
  2  4  1  0  0  0  0
  2 46  1  0  0  0  0
  3 47  1  0  0  0  0
  3 48  1  0  0  0  0
  3 49  1  0  0  0  0
  4  5  1  0  0  0  0
  4 50  1  0  0  0  0
  4 51  1  0  0  0  0
  5 10  1  0  0  0  0
  5  6  2  0  0  0  0
  6  7  1  0  0  0  0
  6 52  1  0  0  0  0
  7  8  2  0  0  0  0
  7 11  1  0  0  0  0
  8  9  1  0  0  0  0
  8 53  1  0  0  0  0
  9 10  2  0  0  0  0
 10 54  1  0  0  0  0
 11 12  1  0  0  0  0
 11 13  1  0  0  0  0
 11 14  1  0  0  0  0
 12 55  1  0  0  0  0
 12 56  1  0  0  0  0
 12 57  1  0  0  0  0
 13 58  1  0  0  0  0
 13 59  1  0  0  0  0
 13 60  1  0  0  0  0
 14 15  1  0  0  0  0
 14 61  1  0  0  0  0
 15 16  1  0  0  0  0
 15 62  1  0  0  0  0
 15 63  1  0  0  0  0
 16 41  1  6  0  0  0
 16 17  1  0  0  0  0
 16 18  1  0  0  0  0
 17 64  1  0  0  0  0
 18 42  1  1  0  0  0
 18 40  1  0  0  0  0
 18 19  1  0  0  0  0
 19 20  1  0  0  0  0
 19 65  1  0  0  0  0
 19 66  1  0  0  0  0
 20 25  1  0  0  0  0
 20 21  2  0  0  0  0
 21 22  1  0  0  0  0
 21 67  1  0  0  0  0
 22 23  2  0  0  0  0
 22 26  1  0  0  0  0
 23 24  1  0  0  0  0
 23 68  1  0  0  0  0
 24 25  2  0  0  0  0
 24 69  1  0  0  0  0
 25 70  1  0  0  0  0
 26 27  1  0  0  0  0
 27 28  1  0  0  0  0
 27 71  1  0  0  0  0
 27 72  1  0  0  0  0
 28 29  1  0  0  0  0
 28 73  1  0  0  0  0
 28 74  1  0  0  0  0
 29 30  1  0  0  0  0
 29 75  1  0  0  0  0
 29 76  1  0  0  0  0
 30 31  1  0  0  0  0
 30 77  1  0  0  0  0
 30 78  1  0  0  0  0
 31 32  1  0  0  0  0
 31 79  1  0  0  0  0
 32 37  1  0  0  0  0
 32 33  2  0  0  0  0
 33 34  1  0  0  0  0
 33 80  1  0  0  0  0
 34 35  2  0  0  0  0
 34 38  1  0  0  0  0
 35 36  1  0  0  0  0
 35 81  1  0  0  0  0
 36 37  2  0  0  0  0
 36 82  1  0  0  0  0
 37 83  1  0  0  0  0
 38 39  2  0  0  0  0
 38 40  1  0  0  0  0
 40 84  1  0  0  0  0
M  END
>  <s_m_source_file>
BACE_123.smi

>  <i_m_source_file_index>
1

>  <i_lp_mmshare_version>
42013

>  <i_f3d_flags>
0

>  <s_epik_input>
W0NIM11bQ0hdKFtDSDNdKVtDSDJdYzFbY0hdYyhbY0hdbltjSF0xKUMoW0NIM10pKFtDSDNdKVtOSF1bQ0gyXVtDQEBIXShbT0hdKVtDQEhdKFtDSDJdMilbTkhdQyg9TyljKFtjSF1bY0hdW2NIXTMpW2NIXWMzW05IXVtDSDJdW0NIMl1bQ0gyXVtDSDJdT2MoW2NIXWMyNClbY0hdW2NIXVtjSF00

>  <s_epik_cmdline>
J2VwaWtfcHl0aG9uJywgJy1waCcsICc3LjAnLCAnLXRuJywgJzgnLCAnLW1hJywgJzIwMCcsICctaW1hZScsICc8aW5maWxlLm1hZT4nLCAnLW9tYWUnLCAnPG91dGZpbGUubWFlPic=

>  <r_lp_tautomer_probability>
1

>  <r_epik_Ionization_Penalty>
1.6198

>  <r_epik_Ionization_Penalty_Charging>
0.0000

>  <r_epik_Ionization_Penalty_Neutral>
1.6198

>  <r_epik_State_Penalty>
1.6838

>  <r_epik_Charging_Adjusted_Penalty>
1.68378

>  <i_epik_Tot_Q>
0

>  <i_epik_Tot_abs_Q>
0

>  <s_lp_Force_Field>
OPLS_2005

>  <r_lp_Energy>
36.7481

>  <b_lp_Chiralities_Consistent>
1

>  <s_lp_Variant>
BACE_123.smi:1-2

>  <chiral flag>
1

>  <version>
0

>  <s_i_glide_gridfile>
second_dock_grid_2

>  <i_i_glide_lignum>
253

>  <i_i_glide_rotatable_bonds>
8

>  <r_i_docking_score>
-1.7322

>  <r_i_glide_ligand_efficiency>
-0.0433051

>  <r_i_glide_ligand_efficiency_sa>
-0.148101

>  <r_i_glide_ligand_efficiency_ln>
-0.369428

>  <r_glide_XP_GScore>
-3.416

>  <r_i_glide_gscore>
-3.416

>  <r_i_glide_evdw>
-41.1333

>  <r_i_glide_ecoul>
-9.37851

>  <r_i_glide_energy>
-50.5118

>  <r_i_glide_einternal>
3.89372

>  <r_i_glide_emodel>
-64.5593

>  <r_glide_XP_HBond>
-1.33

>  <i_i_glide_confnum>
1

>  <i_i_glide_posenum>
2

>  <r_i_glide_eff_state_penalty>
1.6838

>  <i_glide_XP_PoseRank>
1

$$$$
