BACE_29.smi:1
 OpenBabel09291822493D
Structure written by MMmdl.
 86 87  0  0  1  0  0  0  0  0999 V2000
   24.8223   45.0806   -8.3403 C   0  0  0  0  0  0  0  0  0  0  0  0
   23.8835   44.0759   -7.6524 C   0  0  2  0  0  0  0  0  0  0  0  0
   24.1920   44.0583   -6.1358 C   0  0  0  0  0  0  0  0  0  0  0  0
   23.2376   43.2344   -5.2515 C   0  0  0  0  0  0  0  0  0  0  0  0
   21.7859   43.7374   -5.2576 C   0  0  0  0  0  0  0  0  0  0  0  0
   20.8704   42.9749   -4.2844 C   0  0  0  0  0  0  0  0  0  0  0  0
   20.8112   41.4508   -4.4988 C   0  0  0  0  0  0  0  0  0  0  0  0
   20.4621   41.0377   -5.9403 C   0  0  0  0  0  0  0  0  0  0  0  0
   20.0619   39.5570   -6.0410 C   0  0  0  0  0  0  0  0  0  0  0  0
   19.5494   39.1257   -7.4302 C   0  0  0  0  0  0  0  0  0  0  0  0
   20.6184   39.1636   -8.5386 C   0  0  0  0  0  0  0  0  0  0  0  0
   21.7995   39.0174   -8.2125 O   0  0  0  0  0  0  0  0  0  0  0  0
   20.2478   39.3894   -9.8306 N   0  0  0  0  0  0  0  0  0  0  0  0
   18.8267   39.4041  -10.2242 C   0  0  0  0  0  0  0  0  0  0  0  0
   21.3027   39.6959  -10.8352 C   0  0  1  0  0  0  0  0  0  0  0  0
   20.8461   39.5493  -12.3044 C   0  0  0  0  0  0  0  0  0  0  0  0
   21.7966   41.1402  -10.6392 C   0  0  0  0  0  0  0  0  0  0  0  0
   21.0970   42.0914  -10.9883 O   0  0  0  0  0  0  0  0  0  0  0  0
   23.0058   41.2782  -10.0773 N   0  0  0  0  0  0  0  0  0  0  0  0
   23.6770   42.5479   -9.8008 C   0  0  1  0  0  0  0  0  0  0  0  0
   23.9248   42.6548   -8.2738 C   0  0  0  0  0  0  0  0  0  0  0  0
   24.9811   42.6333  -10.6395 C   0  0  2  0  0  0  0  0  0  0  0  0
   24.6369   42.9501  -11.9731 O   0  0  0  0  0  0  0  0  0  0  0  0
   25.8367   41.3407  -10.6402 C   0  0  0  0  0  0  0  0  0  0  0  0
   27.1721   41.5178  -11.2155 N   0  0  0  0  0  0  0  0  0  0  0  0
   28.0417   42.4612  -10.5131 C   0  0  0  0  0  0  0  0  0  0  0  0
   29.4060   42.4916  -11.1296 C   0  0  0  0  0  0  0  0  0  0  0  0
   29.7393   42.4988  -12.5095 C   0  0  0  0  0  0  0  0  0  0  0  0
   31.1084   42.5325  -12.5276 C   0  0  0  0  0  0  0  0  0  0  0  0
   32.2060   42.5631  -13.5610 C   0  0  0  0  0  0  0  0  0  0  0  0
   31.9152   42.4657  -15.1006 C   0  0  0  0  0  0  0  0  0  0  0  0
   32.3805   43.7676  -15.7836 C   0  0  0  0  0  0  0  0  0  0  0  0
   32.7441   41.3027  -15.6858 C   0  0  0  0  0  0  0  0  0  0  0  0
   30.4437   42.2342  -15.4970 C   0  0  0  0  0  0  0  0  0  0  0  0
   31.5610   42.5517  -11.2426 O   0  0  0  0  0  0  0  0  0  0  0  0
   30.4763   42.5292  -10.3610 N   0  0  0  0  0  0  0  0  0  0  0  0
   22.8727   44.4596   -7.7877 H   0  0  0  0  0  0  0  0  0  0  0  0
   22.1328   39.0023  -10.6942 H   0  0  0  0  0  0  0  0  0  0  0  0
   23.0262   43.3802  -10.0788 H   0  0  0  0  0  0  0  0  0  0  0  0
   25.5622   43.4687  -10.2672 H   0  0  0  0  0  0  0  0  0  0  0  0
   24.7749   46.0546   -7.8547 H   0  0  0  0  0  0  0  0  0  0  0  0
   24.5426   45.2445   -9.3800 H   0  0  0  0  0  0  0  0  0  0  0  0
   25.8594   44.7510   -8.3079 H   0  0  0  0  0  0  0  0  0  0  0  0
   25.2068   43.6883   -5.9848 H   0  0  0  0  0  0  0  0  0  0  0  0
   24.1995   45.0806   -5.7574 H   0  0  0  0  0  0  0  0  0  0  0  0
   23.6114   43.2577   -4.2269 H   0  0  0  0  0  0  0  0  0  0  0  0
   23.2617   42.1880   -5.5471 H   0  0  0  0  0  0  0  0  0  0  0  0
   21.7684   44.7966   -4.9989 H   0  0  0  0  0  0  0  0  0  0  0  0
   21.3710   43.6689   -6.2642 H   0  0  0  0  0  0  0  0  0  0  0  0
   19.8597   43.3783   -4.3670 H   0  0  0  0  0  0  0  0  0  0  0  0
   21.1860   43.1748   -3.2602 H   0  0  0  0  0  0  0  0  0  0  0  0
   21.7535   40.9875   -4.2036 H   0  0  0  0  0  0  0  0  0  0  0  0
   20.0602   41.0495   -3.8169 H   0  0  0  0  0  0  0  0  0  0  0  0
   21.3142   41.2253   -6.5909 H   0  0  0  0  0  0  0  0  0  0  0  0
   19.6602   41.6668   -6.3201 H   0  0  0  0  0  0  0  0  0  0  0  0
   20.9143   38.9496   -5.7400 H   0  0  0  0  0  0  0  0  0  0  0  0
   19.2725   39.3502   -5.3174 H   0  0  0  0  0  0  0  0  0  0  0  0
   18.7059   39.7695   -7.6797 H   0  0  0  0  0  0  0  0  0  0  0  0
   19.1608   38.1084   -7.3731 H   0  0  0  0  0  0  0  0  0  0  0  0
   18.6338   39.1512  -11.2655 H   0  0  0  0  0  0  0  0  0  0  0  0
   18.4031   40.3923  -10.0407 H   0  0  0  0  0  0  0  0  0  0  0  0
   18.2418   38.6763   -9.6595 H   0  0  0  0  0  0  0  0  0  0  0  0
   21.6804   39.7003  -12.9907 H   0  0  0  0  0  0  0  0  0  0  0  0
   20.0713   40.2655  -12.5831 H   0  0  0  0  0  0  0  0  0  0  0  0
   20.4598   38.5499  -12.4849 H   0  0  0  0  0  0  0  0  0  0  0  0
   23.4836   40.4320   -9.7975 H   0  0  0  0  0  0  0  0  0  0  0  0
   23.1544   42.0679   -7.7742 H   0  0  0  0  0  0  0  0  0  0  0  0
   24.8593   42.1647   -8.0147 H   0  0  0  0  0  0  0  0  0  0  0  0
   24.3808   42.1336  -12.3970 H   0  0  0  0  0  0  0  0  0  0  0  0
   25.9433   40.9680   -9.6238 H   0  0  0  0  0  0  0  0  0  0  0  0
   25.3159   40.5518  -11.1808 H   0  0  0  0  0  0  0  0  0  0  0  0
   27.6428   40.6128  -11.2398 H   0  0  0  0  0  0  0  0  0  0  0  0
   27.6328   43.4692  -10.5508 H   0  0  0  0  0  0  0  0  0  0  0  0
   28.1082   42.1959   -9.4579 H   0  0  0  0  0  0  0  0  0  0  0  0
   29.0419   42.4767  -13.3314 H   0  0  0  0  0  0  0  0  0  0  0  0
   32.7974   43.4596  -13.3679 H   0  0  0  0  0  0  0  0  0  0  0  0
   32.8880   41.7589  -13.2903 H   0  0  0  0  0  0  0  0  0  0  0  0
   31.8293   44.6316  -15.4088 H   0  0  0  0  0  0  0  0  0  0  0  0
   32.2299   43.7282  -16.8637 H   0  0  0  0  0  0  0  0  0  0  0  0
   33.4409   43.9549  -15.6135 H   0  0  0  0  0  0  0  0  0  0  0  0
   32.4525   40.3487  -15.2429 H   0  0  0  0  0  0  0  0  0  0  0  0
   33.8111   41.4396  -15.5068 H   0  0  0  0  0  0  0  0  0  0  0  0
   32.6052   41.2119  -16.7647 H   0  0  0  0  0  0  0  0  0  0  0  0
   30.0335   41.3501  -15.0116 H   0  0  0  0  0  0  0  0  0  0  0  0
   30.3443   42.0693  -16.5707 H   0  0  0  0  0  0  0  0  0  0  0  0
   29.8184   43.0933  -15.2562 H   0  0  0  0  0  0  0  0  0  0  0  0
  1  2  1  0  0  0  0
  1 41  1  0  0  0  0
  1 42  1  0  0  0  0
  1 43  1  0  0  0  0
  2 37  1  6  0  0  0
  2 21  1  0  0  0  0
  2  3  1  0  0  0  0
  3  4  1  0  0  0  0
  3 44  1  0  0  0  0
  3 45  1  0  0  0  0
  4  5  1  0  0  0  0
  4 46  1  0  0  0  0
  4 47  1  0  0  0  0
  5  6  1  0  0  0  0
  5 48  1  0  0  0  0
  5 49  1  0  0  0  0
  6  7  1  0  0  0  0
  6 50  1  0  0  0  0
  6 51  1  0  0  0  0
  7  8  1  0  0  0  0
  7 52  1  0  0  0  0
  7 53  1  0  0  0  0
  8  9  1  0  0  0  0
  8 54  1  0  0  0  0
  8 55  1  0  0  0  0
  9 10  1  0  0  0  0
  9 56  1  0  0  0  0
  9 57  1  0  0  0  0
 10 11  1  0  0  0  0
 10 58  1  0  0  0  0
 10 59  1  0  0  0  0
 11 12  2  0  0  0  0
 11 13  1  0  0  0  0
 13 14  1  0  0  0  0
 13 15  1  0  0  0  0
 14 60  1  0  0  0  0
 14 61  1  0  0  0  0
 14 62  1  0  0  0  0
 15 38  1  1  0  0  0
 15 16  1  0  0  0  0
 15 17  1  0  0  0  0
 16 63  1  0  0  0  0
 16 64  1  0  0  0  0
 16 65  1  0  0  0  0
 17 18  2  0  0  0  0
 17 19  1  0  0  0  0
 19 20  1  0  0  0  0
 19 66  1  0  0  0  0
 20 39  1  6  0  0  0
 20 21  1  0  0  0  0
 20 22  1  0  0  0  0
 21 67  1  0  0  0  0
 21 68  1  0  0  0  0
 22 40  1  1  0  0  0
 22 23  1  0  0  0  0
 22 24  1  0  0  0  0
 23 69  1  0  0  0  0
 24 25  1  0  0  0  0
 24 70  1  0  0  0  0
 24 71  1  0  0  0  0
 25 26  1  0  0  0  0
 25 72  1  0  0  0  0
 26 27  1  0  0  0  0
 26 73  1  0  0  0  0
 26 74  1  0  0  0  0
 27 36  2  0  0  0  0
 27 28  1  0  0  0  0
 28 29  2  0  0  0  0
 28 75  1  0  0  0  0
 29 30  1  0  0  0  0
 29 35  1  0  0  0  0
 30 31  1  0  0  0  0
 30 76  1  0  0  0  0
 30 77  1  0  0  0  0
 31 32  1  0  0  0  0
 31 33  1  0  0  0  0
 31 34  1  0  0  0  0
 32 78  1  0  0  0  0
 32 79  1  0  0  0  0
 32 80  1  0  0  0  0
 33 81  1  0  0  0  0
 33 82  1  0  0  0  0
 33 83  1  0  0  0  0
 34 84  1  0  0  0  0
 34 85  1  0  0  0  0
 34 86  1  0  0  0  0
 35 36  1  0  0  0  0
M  END
>  <s_m_source_file>
BACE_29.smi

>  <i_m_source_file_index>
1

>  <i_lp_mmshare_version>
42013

>  <i_f3d_flags>
0

>  <s_epik_input>
W0NIM11bQ0BASF0xW0NIMl1bQ0gyXVtDSDJdW0NIMl1bQ0gyXVtDSDJdW0NIMl1bQ0gyXUMoPU8pTihbQ0gzXSlbQ0BASF0oW0NIM10pQyg9TylbTkhdW0NAQEhdKFtDSDJdMSlbQ0BIXShbT0hdKVtDSDJdW05IXVtDSDJdYzJbY0hdYyhvbjIpW0NIMl1DKFtDSDNdKShbQ0gzXSlbQ0gzXQ==

>  <s_epik_cmdline>
J2VwaWtfcHl0aG9uJywgJy1waCcsICc3LjAnLCAnLXRuJywgJzgnLCAnLW1hJywgJzIwMCcsICctaW1hZScsICc8aW5maWxlLm1hZT4nLCAnLW9tYWUnLCAnPG91dGZpbGUubWFlPic=

>  <r_epik_Ionization_Penalty>
0.2749

>  <r_epik_Ionization_Penalty_Charging>
0.0000

>  <r_epik_Ionization_Penalty_Neutral>
0.2749

>  <r_epik_State_Penalty>
0.2672

>  <r_epik_Charging_Adjusted_Penalty>
0.267245

>  <i_epik_Tot_Q>
0

>  <i_epik_Tot_abs_Q>
0

>  <s_lp_Force_Field>
OPLS_2005

>  <r_lp_Energy>
37.6077

>  <b_lp_Chiralities_Consistent>
1

>  <s_lp_Variant>
BACE_29.smi:1-1

>  <chiral flag>
1

>  <version>
0

>  <s_i_glide_gridfile>
second_dock_grid_2

>  <i_i_glide_lignum>
49

>  <i_i_glide_rotatable_bonds>
8

>  <r_i_docking_score>
-4.93915

>  <r_i_glide_ligand_efficiency>
-0.137199

>  <r_i_glide_ligand_efficiency_sa>
-0.45302

>  <r_i_glide_ligand_efficiency_ln>
-1.07759

>  <r_glide_XP_GScore>
-5.20635

>  <r_i_glide_gscore>
-5.20635

>  <r_i_glide_evdw>
-40.3626

>  <r_i_glide_ecoul>
-9.53147

>  <r_i_glide_energy>
-49.8941

>  <r_i_glide_einternal>
9.93347

>  <r_i_glide_emodel>
-63.2596

>  <r_glide_XP_HBond>
-1.33

>  <i_i_glide_confnum>
1

>  <i_i_glide_posenum>
41

>  <r_i_glide_eff_state_penalty>
0.2672

>  <i_glide_XP_PoseRank>
1

$$$$
