BACE_72.smi:1
 OpenBabel09291822493D
Structure written by MMmdl.
 79 81  0  0  1  0  0  0  0  0999 V2000
   31.6264   42.4607  -12.0064 C   0  0  0  0  0  0  0  0  0  0  0  0
   31.0950   42.2689  -13.4286 C   0  0  0  0  0  0  0  0  0  0  0  0
   29.7050   41.9815  -13.3606 O   0  0  0  0  0  0  0  0  0  0  0  0
   28.9750   42.5303  -12.3278 C   0  0  0  0  0  0  0  0  0  0  0  0
   27.8592   41.8012  -11.8746 C   0  0  0  0  0  0  0  0  0  0  0  0
   27.0484   42.2666  -10.8126 C   0  0  0  0  0  0  0  0  0  0  0  0
   25.8518   41.4324  -10.3586 C   0  0  0  0  0  0  0  0  0  0  0  0
   24.5558   42.0090  -10.7117 N   0  0  0  0  0  0  0  0  0  0  0  0
   23.5813   41.9444   -9.6269 C   0  0  0  0  0  0  0  0  0  0  0  0
   23.0887   40.4980   -9.4040 C   0  0  1  0  0  0  0  0  0  0  0  0
   23.5686   40.1067   -8.1318 O   0  0  0  0  0  0  0  0  0  0  0  0
   21.5442   40.3153   -9.4275 C   0  0  2  0  0  0  0  0  0  0  0  0
   21.1678   38.8126   -9.3076 C   0  0  0  0  0  0  0  0  0  0  0  0
   19.6865   38.4299   -9.0522 C   0  0  2  0  0  0  0  0  0  0  0  0
   18.7947   38.5503  -10.2994 C   0  0  0  0  0  0  0  0  0  0  0  0
   19.0337   39.1009   -7.8217 C   0  0  0  0  0  0  0  0  0  0  0  0
   19.7187   38.7923   -6.4751 C   0  0  0  0  0  0  0  0  0  0  0  0
   20.8367   39.6394   -6.2466 O   0  0  0  0  0  0  0  0  0  0  0  0
   20.5023   40.8544   -5.5902 C   0  0  0  0  0  0  0  0  0  0  0  0
   21.7212   41.7880   -5.5984 C   0  0  0  0  0  0  0  0  0  0  0  0
   21.5244   43.0954   -4.8058 C   0  0  0  0  0  0  0  0  0  0  0  0
   20.3522   43.9816   -5.2691 C   0  0  0  0  0  0  0  0  0  0  0  0
   20.5037   44.4281   -6.6495 N   0  0  0  0  0  0  0  0  0  0  0  0
   19.6691   43.8106   -7.5895 C   0  0  0  0  0  0  0  0  0  0  0  0
   20.2512   43.2262   -8.7312 C   0  0  0  0  0  0  0  0  0  0  0  0
   19.4600   42.5207   -9.6635 C   0  0  0  0  0  0  0  0  0  0  0  0
   18.0603   42.4806   -9.4895 C   0  0  0  0  0  0  0  0  0  0  0  0
   17.4671   43.0888   -8.3671 C   0  0  0  0  0  0  0  0  0  0  0  0
   18.2692   43.7431   -7.4132 C   0  0  0  0  0  0  0  0  0  0  0  0
   20.0779   41.8488  -10.8555 C   0  0  0  0  0  0  0  0  0  0  0  0
   19.6980   42.1521  -11.9842 O   0  0  0  0  0  0  0  0  0  0  0  0
   21.0008   40.8832  -10.6674 N   0  0  0  0  0  0  0  0  0  0  0  0
   27.3455   43.5193  -10.2101 C   0  0  0  0  0  0  0  0  0  0  0  0
   28.4678   44.2489  -10.6635 C   0  0  0  0  0  0  0  0  0  0  0  0
   29.2771   43.7636  -11.7060 C   0  0  0  0  0  0  0  0  0  0  0  0
   26.4848   44.0954   -9.0853 C   0  0  0  0  0  0  0  0  0  0  0  0
   26.0793   45.3360   -9.3596 F   0  0  0  0  0  0  0  0  0  0  0  0
   25.3953   43.3495   -8.8998 F   0  0  0  0  0  0  0  0  0  0  0  0
   27.1873   44.1363   -7.9533 F   0  0  0  0  0  0  0  0  0  0  0  0
   23.5274   39.8460  -10.1611 H   0  0  0  0  0  0  0  0  0  0  0  0
   21.1399   40.8272   -8.5598 H   0  0  0  0  0  0  0  0  0  0  0  0
   19.7079   37.3611   -8.8352 H   0  0  0  0  0  0  0  0  0  0  0  0
   32.6943   42.6802  -12.0165 H   0  0  0  0  0  0  0  0  0  0  0  0
   31.4747   41.5626  -11.4072 H   0  0  0  0  0  0  0  0  0  0  0  0
   31.1198   43.2872  -11.5073 H   0  0  0  0  0  0  0  0  0  0  0  0
   31.2677   43.1775  -14.0074 H   0  0  0  0  0  0  0  0  0  0  0  0
   31.6300   41.4493  -13.9107 H   0  0  0  0  0  0  0  0  0  0  0  0
   27.6314   40.8638  -12.3604 H   0  0  0  0  0  0  0  0  0  0  0  0
   25.9149   40.4341  -10.7873 H   0  0  0  0  0  0  0  0  0  0  0  0
   25.9212   41.3102   -9.2771 H   0  0  0  0  0  0  0  0  0  0  0  0
   24.1838   41.5265  -11.5235 H   0  0  0  0  0  0  0  0  0  0  0  0
   24.0103   42.3426   -8.7067 H   0  0  0  0  0  0  0  0  0  0  0  0
   22.7459   42.5952   -9.8834 H   0  0  0  0  0  0  0  0  0  0  0  0
   24.3123   39.5372   -8.2543 H   0  0  0  0  0  0  0  0  0  0  0  0
   21.5202   38.2869  -10.1961 H   0  0  0  0  0  0  0  0  0  0  0  0
   21.7413   38.3767   -8.4897 H   0  0  0  0  0  0  0  0  0  0  0  0
   18.5373   39.5827  -10.5234 H   0  0  0  0  0  0  0  0  0  0  0  0
   17.8555   38.0162  -10.1540 H   0  0  0  0  0  0  0  0  0  0  0  0
   19.2782   38.1227  -11.1781 H   0  0  0  0  0  0  0  0  0  0  0  0
   18.9413   40.1754   -7.9697 H   0  0  0  0  0  0  0  0  0  0  0  0
   18.0092   38.7335   -7.7538 H   0  0  0  0  0  0  0  0  0  0  0  0
   19.0043   38.8787   -5.6544 H   0  0  0  0  0  0  0  0  0  0  0  0
   20.0600   37.7569   -6.4652 H   0  0  0  0  0  0  0  0  0  0  0  0
   19.6609   41.3338   -6.0898 H   0  0  0  0  0  0  0  0  0  0  0  0
   20.1956   40.6413   -4.5652 H   0  0  0  0  0  0  0  0  0  0  0  0
   22.5744   41.2546   -5.1783 H   0  0  0  0  0  0  0  0  0  0  0  0
   21.9949   42.0201   -6.6270 H   0  0  0  0  0  0  0  0  0  0  0  0
   21.3776   42.8486   -3.7539 H   0  0  0  0  0  0  0  0  0  0  0  0
   22.4476   43.6745   -4.8481 H   0  0  0  0  0  0  0  0  0  0  0  0
   19.4115   43.4551   -5.1097 H   0  0  0  0  0  0  0  0  0  0  0  0
   20.3060   44.8703   -4.6392 H   0  0  0  0  0  0  0  0  0  0  0  0
   21.4652   44.5247   -6.9429 H   0  0  0  0  0  0  0  0  0  0  0  0
   21.3183   43.2916   -8.8720 H   0  0  0  0  0  0  0  0  0  0  0  0
   17.4368   41.9679  -10.2077 H   0  0  0  0  0  0  0  0  0  0  0  0
   16.3965   43.0449   -8.2332 H   0  0  0  0  0  0  0  0  0  0  0  0
   17.8021   44.1974   -6.5517 H   0  0  0  0  0  0  0  0  0  0  0  0
   21.3655   40.4671  -11.5120 H   0  0  0  0  0  0  0  0  0  0  0  0
   28.7231   45.1977  -10.2160 H   0  0  0  0  0  0  0  0  0  0  0  0
   30.1214   44.3613  -12.0140 H   0  0  0  0  0  0  0  0  0  0  0  0
  1  2  1  0  0  0  0
  1 43  1  0  0  0  0
  1 44  1  0  0  0  0
  1 45  1  0  0  0  0
  2  3  1  0  0  0  0
  2 46  1  0  0  0  0
  2 47  1  0  0  0  0
  3  4  1  0  0  0  0
  4 35  1  0  0  0  0
  4  5  2  0  0  0  0
  5  6  1  0  0  0  0
  5 48  1  0  0  0  0
  6  7  1  0  0  0  0
  6 33  2  0  0  0  0
  7  8  1  0  0  0  0
  7 49  1  0  0  0  0
  7 50  1  0  0  0  0
  8  9  1  0  0  0  0
  8 51  1  0  0  0  0
  9 10  1  0  0  0  0
  9 52  1  0  0  0  0
  9 53  1  0  0  0  0
 10 40  1  6  0  0  0
 10 11  1  0  0  0  0
 10 12  1  0  0  0  0
 11 54  1  0  0  0  0
 12 41  1  1  0  0  0
 12 32  1  0  0  0  0
 12 13  1  0  0  0  0
 13 14  1  0  0  0  0
 13 55  1  0  0  0  0
 13 56  1  0  0  0  0
 14 42  1  1  0  0  0
 14 15  1  0  0  0  0
 14 16  1  0  0  0  0
 15 57  1  0  0  0  0
 15 58  1  0  0  0  0
 15 59  1  0  0  0  0
 16 17  1  0  0  0  0
 16 60  1  0  0  0  0
 16 61  1  0  0  0  0
 17 18  1  0  0  0  0
 17 62  1  0  0  0  0
 17 63  1  0  0  0  0
 18 19  1  0  0  0  0
 19 20  1  0  0  0  0
 19 64  1  0  0  0  0
 19 65  1  0  0  0  0
 20 21  1  0  0  0  0
 20 66  1  0  0  0  0
 20 67  1  0  0  0  0
 21 22  1  0  0  0  0
 21 68  1  0  0  0  0
 21 69  1  0  0  0  0
 22 23  1  0  0  0  0
 22 70  1  0  0  0  0
 22 71  1  0  0  0  0
 23 24  1  0  0  0  0
 23 72  1  0  0  0  0
 24 29  1  0  0  0  0
 24 25  2  0  0  0  0
 25 26  1  0  0  0  0
 25 73  1  0  0  0  0
 26 27  2  0  0  0  0
 26 30  1  0  0  0  0
 27 28  1  0  0  0  0
 27 74  1  0  0  0  0
 28 29  2  0  0  0  0
 28 75  1  0  0  0  0
 29 76  1  0  0  0  0
 30 31  2  0  0  0  0
 30 32  1  0  0  0  0
 32 77  1  0  0  0  0
 33 34  1  0  0  0  0
 33 36  1  0  0  0  0
 34 35  2  0  0  0  0
 34 78  1  0  0  0  0
 35 79  1  0  0  0  0
 36 37  1  0  0  0  0
 36 38  1  0  0  0  0
 36 39  1  0  0  0  0
M  END
>  <s_m_source_file>
BACE_72.smi

>  <i_m_source_file_index>
1

>  <i_lp_mmshare_version>
42013

>  <i_f3d_flags>
0

>  <s_epik_input>
W0NIM11bQ0gyXU9jMVtjSF1jKGMoQyhGKShGKUYpW2NIXVtjSF0xKVtDSDJdW05IXVtDSDJdW0NAQEhdKFtPSF0pW0NAQEhdKFtOSF1DKD1PKWMoW2NIXWMyMylbY0hdW2NIXVtjSF0zKVtDSDJdW0NASF0oW0NIM10pW0NIMl1bQ0gyXU9bQ0gyXVtDSDJdW0NIMl1bQ0gyXVtOSF0y

>  <s_epik_cmdline>
J2VwaWtfcHl0aG9uJywgJy1waCcsICc3LjAnLCAnLXRuJywgJzgnLCAnLW1hJywgJzIwMCcsICctaW1hZScsICc8aW5maWxlLm1hZT4nLCAnLW9tYWUnLCAnPG91dGZpbGUubWFlPic=

>  <r_lp_tautomer_probability>
1

>  <r_epik_Ionization_Penalty>
1.8231

>  <r_epik_Ionization_Penalty_Charging>
0.0000

>  <r_epik_Ionization_Penalty_Neutral>
1.8231

>  <r_epik_State_Penalty>
1.9378

>  <r_epik_Charging_Adjusted_Penalty>
1.93778

>  <i_epik_Tot_Q>
0

>  <i_epik_Tot_abs_Q>
0

>  <s_lp_Force_Field>
OPLS_2005

>  <r_lp_Energy>
49.0297

>  <b_lp_Chiralities_Consistent>
1

>  <s_lp_Variant>
BACE_72.smi:1-2

>  <chiral flag>
1

>  <version>
0

>  <s_i_glide_gridfile>
second_dock_grid_2

>  <i_i_glide_lignum>
145

>  <i_i_glide_rotatable_bonds>
9

>  <r_i_docking_score>
-2.31932

>  <r_i_glide_ligand_efficiency>
-0.0594696

>  <r_i_glide_ligand_efficiency_sa>
-0.201674

>  <r_i_glide_ligand_efficiency_ln>
-0.497327

>  <r_glide_XP_GScore>
-4.25712

>  <r_i_glide_gscore>
-4.25712

>  <r_i_glide_evdw>
-36.8392

>  <r_i_glide_ecoul>
-7.85406

>  <r_i_glide_energy>
-44.6933

>  <r_i_glide_einternal>
7.47103

>  <r_i_glide_emodel>
-61.4096

>  <r_glide_XP_HBond>
-0.96

>  <i_i_glide_confnum>
1

>  <i_i_glide_posenum>
40

>  <r_i_glide_eff_state_penalty>
1.9378

>  <i_glide_XP_PoseRank>
1

$$$$
