BACE_106.smi:1
 OpenBabel09291822493D
Structure written by MMmdl.
 82 85  0  0  1  0  0  0  0  0999 V2000
   15.5152   41.6217   -8.4888 C   0  0  0  0  0  0  0  0  0  0  0  0
   15.6831   40.1012   -8.3339 C   0  0  0  0  0  0  0  0  0  0  0  0
   15.2623   39.6295   -6.9306 C   0  0  0  0  0  0  0  0  0  0  0  0
   17.0946   39.6368   -8.6751 C   0  0  0  0  0  0  0  0  0  0  0  0
   17.2959   38.6422   -9.6488 C   0  0  0  0  0  0  0  0  0  0  0  0
   18.5936   38.1781   -9.9322 C   0  0  0  0  0  0  0  0  0  0  0  0
   19.6973   38.6945   -9.2288 C   0  0  0  0  0  0  0  0  0  0  0  0
   19.5262   39.6991   -8.2447 C   0  0  0  0  0  0  0  0  0  0  0  0
   18.2116   40.1642   -7.9917 C   0  0  0  0  0  0  0  0  0  0  0  0
   20.7201   40.1526   -7.3808 C   0  0  0  0  0  0  0  0  0  0  0  0
   20.9459   39.0330   -6.3436 C   0  0  0  0  0  0  0  0  0  0  0  0
   22.0071   40.3241   -8.2223 C   0  0  0  0  0  0  0  0  0  0  0  0
   20.4493   41.4405   -6.7118 N   0  0  0  0  0  0  0  0  0  0  0  0
   21.1774   41.7342   -5.4688 C   0  0  0  0  0  0  0  0  0  0  0  0
   21.1506   43.2346   -5.1232 C   0  0  1  0  0  0  0  0  0  0  0  0
   21.5661   43.3491   -3.7755 O   0  0  0  0  0  0  0  0  0  0  0  0
   22.0797   44.0838   -6.0389 C   0  0  2  0  0  0  0  0  0  0  0  0
   23.5635   43.6145   -6.0248 C   0  0  0  0  0  0  0  0  0  0  0  0
   24.5397   44.5470   -6.7298 C   0  0  0  0  0  0  0  0  0  0  0  0
   24.8415   44.3634   -8.0959 C   0  0  0  0  0  0  0  0  0  0  0  0
   25.7514   45.2258   -8.7396 C   0  0  0  0  0  0  0  0  0  0  0  0
   26.3501   46.2843   -8.0271 C   0  0  0  0  0  0  0  0  0  0  0  0
   26.0464   46.4770   -6.6646 C   0  0  0  0  0  0  0  0  0  0  0  0
   26.6176   47.6554   -5.8974 C   0  0  0  0  0  0  0  0  0  0  0  0
   25.6002   48.8080   -5.8328 C   0  0  0  0  0  0  0  0  0  0  0  0
   25.7896   49.7586   -4.6373 C   0  0  0  0  0  0  0  0  0  0  0  0
   24.6125   50.7290   -4.4074 C   0  0  0  0  0  0  0  0  0  0  0  0
   23.4717   50.0399   -3.8984 O   0  0  0  0  0  0  0  0  0  0  0  0
   22.5240   49.6210   -4.8035 C   0  0  0  0  0  0  0  0  0  0  0  0
   22.1865   48.2561   -4.8407 C   0  0  0  0  0  0  0  0  0  0  0  0
   21.2741   47.8011   -5.8190 C   0  0  0  0  0  0  0  0  0  0  0  0
   20.6714   48.7658   -6.6521 C   0  0  0  0  0  0  0  0  0  0  0  0
   21.0565   50.1166   -6.5198 C   0  0  0  0  0  0  0  0  0  0  0  0
   20.4497   51.1743   -7.4185 C   0  0  0  0  0  0  0  0  0  0  0  0
   21.9806   50.5469   -5.6304 N   0  0  0  0  0  0  0  0  0  0  0  0
   20.9561   46.3401   -5.9744 C   0  0  0  0  0  0  0  0  0  0  0  0
   19.8365   45.9624   -6.3162 O   0  0  0  0  0  0  0  0  0  0  0  0
   21.9964   45.5188   -5.7578 N   0  0  0  0  0  0  0  0  0  0  0  0
   25.1574   45.5962   -6.0176 C   0  0  0  0  0  0  0  0  0  0  0  0
   20.1200   43.5863   -5.1760 H   0  0  0  0  0  0  0  0  0  0  0  0
   21.7276   43.9665   -7.0658 H   0  0  0  0  0  0  0  0  0  0  0  0
   15.7928   41.9478   -9.4928 H   0  0  0  0  0  0  0  0  0  0  0  0
   16.1285   42.1713   -7.7729 H   0  0  0  0  0  0  0  0  0  0  0  0
   14.4795   41.9149   -8.3191 H   0  0  0  0  0  0  0  0  0  0  0  0
   15.0004   39.6326   -9.0451 H   0  0  0  0  0  0  0  0  0  0  0  0
   15.3386   38.5460   -6.8469 H   0  0  0  0  0  0  0  0  0  0  0  0
   14.2296   39.8970   -6.7100 H   0  0  0  0  0  0  0  0  0  0  0  0
   15.8854   40.0645   -6.1487 H   0  0  0  0  0  0  0  0  0  0  0  0
   16.4548   38.2160  -10.1766 H   0  0  0  0  0  0  0  0  0  0  0  0
   18.7427   37.4079  -10.6705 H   0  0  0  0  0  0  0  0  0  0  0  0
   20.6716   38.2800   -9.4364 H   0  0  0  0  0  0  0  0  0  0  0  0
   18.0217   40.9083   -7.2394 H   0  0  0  0  0  0  0  0  0  0  0  0
   21.1027   38.0656   -6.8305 H   0  0  0  0  0  0  0  0  0  0  0  0
   20.0709   38.9487   -5.6943 H   0  0  0  0  0  0  0  0  0  0  0  0
   21.8135   39.2122   -5.7103 H   0  0  0  0  0  0  0  0  0  0  0  0
   22.3531   39.3910   -8.6680 H   0  0  0  0  0  0  0  0  0  0  0  0
   22.8401   40.6928   -7.6233 H   0  0  0  0  0  0  0  0  0  0  0  0
   21.8487   41.0378   -9.0352 H   0  0  0  0  0  0  0  0  0  0  0  0
   19.4488   41.5384   -6.5531 H   0  0  0  0  0  0  0  0  0  0  0  0
   20.7045   41.1811   -4.6572 H   0  0  0  0  0  0  0  0  0  0  0  0
   22.2033   41.3658   -5.5146 H   0  0  0  0  0  0  0  0  0  0  0  0
   21.2632   44.1851   -3.4294 H   0  0  0  0  0  0  0  0  0  0  0  0
   23.9096   43.4837   -4.9977 H   0  0  0  0  0  0  0  0  0  0  0  0
   23.6529   42.6359   -6.4956 H   0  0  0  0  0  0  0  0  0  0  0  0
   24.3798   43.5598   -8.6525 H   0  0  0  0  0  0  0  0  0  0  0  0
   25.9816   45.0826   -9.7838 H   0  0  0  0  0  0  0  0  0  0  0  0
   27.0315   46.9536   -8.5324 H   0  0  0  0  0  0  0  0  0  0  0  0
   26.8672   47.3118   -4.8917 H   0  0  0  0  0  0  0  0  0  0  0  0
   27.5510   47.9908   -6.3486 H   0  0  0  0  0  0  0  0  0  0  0  0
   25.5957   49.3582   -6.7748 H   0  0  0  0  0  0  0  0  0  0  0  0
   24.6171   48.3567   -5.7557 H   0  0  0  0  0  0  0  0  0  0  0  0
   25.9446   49.1806   -3.7258 H   0  0  0  0  0  0  0  0  0  0  0  0
   26.7054   50.3318   -4.7898 H   0  0  0  0  0  0  0  0  0  0  0  0
   24.9079   51.4507   -3.6449 H   0  0  0  0  0  0  0  0  0  0  0  0
   24.4094   51.3108   -5.3073 H   0  0  0  0  0  0  0  0  0  0  0  0
   22.6685   47.5738   -4.1585 H   0  0  0  0  0  0  0  0  0  0  0  0
   19.9501   48.4685   -7.3997 H   0  0  0  0  0  0  0  0  0  0  0  0
   19.4432   50.8860   -7.7276 H   0  0  0  0  0  0  0  0  0  0  0  0
   21.0594   51.2997   -8.3132 H   0  0  0  0  0  0  0  0  0  0  0  0
   20.3815   52.1346   -6.9061 H   0  0  0  0  0  0  0  0  0  0  0  0
   22.8732   45.9598   -5.5220 H   0  0  0  0  0  0  0  0  0  0  0  0
   24.9319   45.7375   -4.9693 H   0  0  0  0  0  0  0  0  0  0  0  0
  1  2  1  0  0  0  0
  1 42  1  0  0  0  0
  1 43  1  0  0  0  0
  1 44  1  0  0  0  0
  2  3  1  0  0  0  0
  2  4  1  0  0  0  0
  2 45  1  0  0  0  0
  3 46  1  0  0  0  0
  3 47  1  0  0  0  0
  3 48  1  0  0  0  0
  4  9  1  0  0  0  0
  4  5  2  0  0  0  0
  5  6  1  0  0  0  0
  5 49  1  0  0  0  0
  6  7  2  0  0  0  0
  6 50  1  0  0  0  0
  7  8  1  0  0  0  0
  7 51  1  0  0  0  0
  8  9  2  0  0  0  0
  8 10  1  0  0  0  0
  9 52  1  0  0  0  0
 10 11  1  0  0  0  0
 10 12  1  0  0  0  0
 10 13  1  0  0  0  0
 11 53  1  0  0  0  0
 11 54  1  0  0  0  0
 11 55  1  0  0  0  0
 12 56  1  0  0  0  0
 12 57  1  0  0  0  0
 12 58  1  0  0  0  0
 13 14  1  0  0  0  0
 13 59  1  0  0  0  0
 14 15  1  0  0  0  0
 14 60  1  0  0  0  0
 14 61  1  0  0  0  0
 15 40  1  6  0  0  0
 15 16  1  0  0  0  0
 15 17  1  0  0  0  0
 16 62  1  0  0  0  0
 17 41  1  6  0  0  0
 17 38  1  0  0  0  0
 17 18  1  0  0  0  0
 18 19  1  0  0  0  0
 18 63  1  0  0  0  0
 18 64  1  0  0  0  0
 19 39  1  0  0  0  0
 19 20  2  0  0  0  0
 20 21  1  0  0  0  0
 20 65  1  0  0  0  0
 21 22  2  0  0  0  0
 21 66  1  0  0  0  0
 22 23  1  0  0  0  0
 22 67  1  0  0  0  0
 23 24  1  0  0  0  0
 23 39  2  0  0  0  0
 24 25  1  0  0  0  0
 24 68  1  0  0  0  0
 24 69  1  0  0  0  0
 25 26  1  0  0  0  0
 25 70  1  0  0  0  0
 25 71  1  0  0  0  0
 26 27  1  0  0  0  0
 26 72  1  0  0  0  0
 26 73  1  0  0  0  0
 27 28  1  0  0  0  0
 27 74  1  0  0  0  0
 27 75  1  0  0  0  0
 28 29  1  0  0  0  0
 29 35  1  0  0  0  0
 29 30  2  0  0  0  0
 30 31  1  0  0  0  0
 30 76  1  0  0  0  0
 31 32  2  0  0  0  0
 31 36  1  0  0  0  0
 32 33  1  0  0  0  0
 32 77  1  0  0  0  0
 33 34  1  0  0  0  0
 33 35  2  0  0  0  0
 34 78  1  0  0  0  0
 34 79  1  0  0  0  0
 34 80  1  0  0  0  0
 36 37  2  0  0  0  0
 36 38  1  0  0  0  0
 38 81  1  0  0  0  0
 39 82  1  0  0  0  0
M  END
>  <s_m_source_file>
BACE_106.smi

>  <i_m_source_file_index>
1

>  <i_lp_mmshare_version>
42013

>  <i_f3d_flags>
0

>  <s_epik_input>
W0NIM11bQ0hdKFtDSDNdKWMxW2NIXVtjSF1bY0hdYyhbY0hdMSlDKFtDSDNdKShbQ0gzXSlbTkhdW0NIMl1bQ0BASF0oW09IXSlbQ0BIXShbQ0gyXTIpW05IXUMoPU8pYyhbY0hdYyhuMylbQ0gzXSlbY0hdYzNPW0NIMl1bQ0gyXVtDSDJdW0NIMl1jKFtjSF00KVtjSF1bY0hdW2NIXWMyNA==

>  <s_epik_cmdline>
J2VwaWtfcHl0aG9uJywgJy1waCcsICc3LjAnLCAnLXRuJywgJzgnLCAnLW1hJywgJzIwMCcsICctaW1hZScsICc8aW5maWxlLm1hZT4nLCAnLW9tYWUnLCAnPG91dGZpbGUubWFlPic=

>  <r_lp_tautomer_probability>
1

>  <r_epik_Ionization_Penalty>
2.0161

>  <r_epik_Ionization_Penalty_Charging>
0.0000

>  <r_epik_Ionization_Penalty_Neutral>
2.0161

>  <r_epik_State_Penalty>
2.1460

>  <r_epik_Charging_Adjusted_Penalty>
2.14597

>  <i_epik_Tot_Q>
0

>  <i_epik_Tot_abs_Q>
0

>  <s_lp_Force_Field>
OPLS_2005

>  <r_lp_Energy>
39.8527

>  <b_lp_Chiralities_Consistent>
1

>  <s_lp_Variant>
BACE_106.smi:1-2

>  <chiral flag>
1

>  <version>
0

>  <s_i_glide_gridfile>
second_dock_grid_2

>  <i_i_glide_lignum>
217

>  <i_i_glide_rotatable_bonds>
7

>  <r_i_docking_score>
-0.713147

>  <r_i_glide_ligand_efficiency>
-0.0182858

>  <r_i_glide_ligand_efficiency_sa>
-0.0620111

>  <r_i_glide_ligand_efficiency_ln>
-0.152919

>  <r_glide_XP_GScore>
-2.85915

>  <r_i_glide_gscore>
-2.85915

>  <r_i_glide_evdw>
-36.4275

>  <r_i_glide_ecoul>
-9.05023

>  <r_i_glide_energy>
-45.4777

>  <r_i_glide_einternal>
3.45131

>  <r_i_glide_emodel>
-60.8434

>  <r_glide_XP_HBond>
-1.26572

>  <i_i_glide_confnum>
1

>  <i_i_glide_posenum>
8

>  <r_i_glide_eff_state_penalty>
2.146

>  <i_glide_XP_PoseRank>
1

$$$$
