BACE_89.smi:1
 OpenBabel09291822493D
Structure written by MMmdl.
 79 82  0  0  1  0  0  0  0  0999 V2000
   30.3597   46.3529  -13.3255 C   0  0  0  0  0  0  0  0  0  0  0  0
   29.4917   45.4246  -14.1891 C   0  0  0  0  0  0  0  0  0  0  0  0
   28.2751   46.1636  -14.7686 C   0  0  0  0  0  0  0  0  0  0  0  0
   29.0746   44.1739  -13.4265 C   0  0  0  0  0  0  0  0  0  0  0  0
   28.1040   44.2471  -12.4034 C   0  0  0  0  0  0  0  0  0  0  0  0
   27.7010   43.0846  -11.7118 C   0  0  0  0  0  0  0  0  0  0  0  0
   26.6440   43.1587  -10.6224 C   0  0  0  0  0  0  0  0  0  0  0  0
   25.4186   42.4286  -10.9425 N   0  0  0  0  0  0  0  0  0  0  0  0
   24.7165   41.8995   -9.7747 C   0  0  0  0  0  0  0  0  0  0  0  0
   23.4497   41.1225  -10.1922 C   0  0  1  0  0  0  0  0  0  0  0  0
   22.8431   40.6369   -9.0103 O   0  0  0  0  0  0  0  0  0  0  0  0
   22.3963   41.9824  -10.9460 C   0  0  2  0  0  0  0  0  0  0  0  0
   22.2779   43.4519  -10.4601 C   0  0  0  0  0  0  0  0  0  0  0  0
   22.3883   43.6659   -8.9539 C   0  0  0  0  0  0  0  0  0  0  0  0
   21.5399   42.9810   -8.0553 C   0  0  0  0  0  0  0  0  0  0  0  0
   21.7071   43.1133   -6.6625 C   0  0  0  0  0  0  0  0  0  0  0  0
   22.6809   44.0115   -6.1663 C   0  0  0  0  0  0  0  0  0  0  0  0
   23.5031   44.7273   -7.0558 C   0  0  0  0  0  0  0  0  0  0  0  0
   23.3662   44.5460   -8.4443 C   0  0  0  0  0  0  0  0  0  0  0  0
   20.9048   42.3512   -5.8456 O   0  0  0  0  0  0  0  0  0  0  0  0
   21.5004   41.8241   -4.6623 C   0  0  0  0  0  0  0  0  0  0  0  0
   21.1962   40.3217   -4.5772 C   0  0  0  0  0  0  0  0  0  0  0  0
   21.7978   39.5153   -5.7481 C   0  0  0  0  0  0  0  0  0  0  0  0
   20.7365   38.8490   -6.6322 C   0  0  0  0  0  0  0  0  0  0  0  0
   19.8867   39.8527   -7.1694 O   0  0  0  0  0  0  0  0  0  0  0  0
   18.7802   39.3616   -7.9157 C   0  0  1  0  0  0  0  0  0  0  0  0
   17.7382   40.4801   -8.0329 C   0  0  0  0  0  0  0  0  0  0  0  0
   17.9148   41.0736   -9.4357 C   0  0  0  0  0  0  0  0  0  0  0  0
   18.7076   40.0932  -10.1587 N   0  0  0  0  0  0  0  0  0  0  0  0
   18.9790   40.2647  -11.5883 C   0  0  0  0  0  0  0  0  0  0  0  0
   20.3230   40.9401  -11.9071 C   0  0  0  0  0  0  0  0  0  0  0  0
   20.6602   41.0708  -13.0830 O   0  0  0  0  0  0  0  0  0  0  0  0
   21.0785   41.3545  -10.8746 N   0  0  0  0  0  0  0  0  0  0  0  0
   19.1962   39.1313   -9.3645 C   0  0  0  0  0  0  0  0  0  0  0  0
   19.9073   38.1927   -9.7218 O   0  0  0  0  0  0  0  0  0  0  0  0
   28.2887   41.8442  -12.0338 C   0  0  0  0  0  0  0  0  0  0  0  0
   29.2628   41.7657  -13.0470 C   0  0  0  0  0  0  0  0  0  0  0  0
   29.6525   42.9258  -13.7431 C   0  0  0  0  0  0  0  0  0  0  0  0
   23.7543   40.2758  -10.8068 H   0  0  0  0  0  0  0  0  0  0  0  0
   22.6926   42.0202  -11.9958 H   0  0  0  0  0  0  0  0  0  0  0  0
   18.3443   38.4679   -7.4663 H   0  0  0  0  0  0  0  0  0  0  0  0
   31.2461   45.8326  -12.9615 H   0  0  0  0  0  0  0  0  0  0  0  0
   29.8124   46.7257  -12.4591 H   0  0  0  0  0  0  0  0  0  0  0  0
   30.6979   47.2167  -13.8985 H   0  0  0  0  0  0  0  0  0  0  0  0
   30.1048   45.1075  -15.0338 H   0  0  0  0  0  0  0  0  0  0  0  0
   27.6949   45.5096  -15.4202 H   0  0  0  0  0  0  0  0  0  0  0  0
   28.5861   47.0252  -15.3598 H   0  0  0  0  0  0  0  0  0  0  0  0
   27.6110   46.5252  -13.9832 H   0  0  0  0  0  0  0  0  0  0  0  0
   27.6571   45.1984  -12.1543 H   0  0  0  0  0  0  0  0  0  0  0  0
   27.0571   42.8022   -9.6777 H   0  0  0  0  0  0  0  0  0  0  0  0
   26.4060   44.2119  -10.4719 H   0  0  0  0  0  0  0  0  0  0  0  0
   25.6254   41.6772  -11.5926 H   0  0  0  0  0  0  0  0  0  0  0  0
   25.3717   41.2679   -9.1734 H   0  0  0  0  0  0  0  0  0  0  0  0
   24.4456   42.7425   -9.1405 H   0  0  0  0  0  0  0  0  0  0  0  0
   23.2017   39.7839   -8.8185 H   0  0  0  0  0  0  0  0  0  0  0  0
   23.0702   44.0282  -10.9395 H   0  0  0  0  0  0  0  0  0  0  0  0
   21.3465   43.8982  -10.8117 H   0  0  0  0  0  0  0  0  0  0  0  0
   20.7851   42.3044   -8.4262 H   0  0  0  0  0  0  0  0  0  0  0  0
   22.8072   44.1581   -5.1038 H   0  0  0  0  0  0  0  0  0  0  0  0
   24.2498   45.4065   -6.6717 H   0  0  0  0  0  0  0  0  0  0  0  0
   24.0197   45.0840   -9.1156 H   0  0  0  0  0  0  0  0  0  0  0  0
   22.5832   41.9497   -4.6266 H   0  0  0  0  0  0  0  0  0  0  0  0
   21.0879   42.3446   -3.7977 H   0  0  0  0  0  0  0  0  0  0  0  0
   21.6003   39.9385   -3.6398 H   0  0  0  0  0  0  0  0  0  0  0  0
   20.1179   40.1695   -4.5157 H   0  0  0  0  0  0  0  0  0  0  0  0
   22.4362   40.1489   -6.3655 H   0  0  0  0  0  0  0  0  0  0  0  0
   22.4534   38.7411   -5.3483 H   0  0  0  0  0  0  0  0  0  0  0  0
   21.2229   38.2880   -7.4303 H   0  0  0  0  0  0  0  0  0  0  0  0
   20.1560   38.1398   -6.0400 H   0  0  0  0  0  0  0  0  0  0  0  0
   16.7375   40.0572   -7.9361 H   0  0  0  0  0  0  0  0  0  0  0  0
   17.8469   41.2368   -7.2547 H   0  0  0  0  0  0  0  0  0  0  0  0
   16.9555   41.2529   -9.9222 H   0  0  0  0  0  0  0  0  0  0  0  0
   18.4599   42.0176   -9.3937 H   0  0  0  0  0  0  0  0  0  0  0  0
   18.9490   39.2927  -12.0829 H   0  0  0  0  0  0  0  0  0  0  0  0
   18.1819   40.8590  -12.0364 H   0  0  0  0  0  0  0  0  0  0  0  0
   20.7128   41.2006   -9.9461 H   0  0  0  0  0  0  0  0  0  0  0  0
   27.9916   40.9486  -11.5080 H   0  0  0  0  0  0  0  0  0  0  0  0
   29.7094   40.8136  -13.2929 H   0  0  0  0  0  0  0  0  0  0  0  0
   30.3970   42.8507  -14.5219 H   0  0  0  0  0  0  0  0  0  0  0  0
  1  2  1  0  0  0  0
  1 42  1  0  0  0  0
  1 43  1  0  0  0  0
  1 44  1  0  0  0  0
  2  3  1  0  0  0  0
  2  4  1  0  0  0  0
  2 45  1  0  0  0  0
  3 46  1  0  0  0  0
  3 47  1  0  0  0  0
  3 48  1  0  0  0  0
  4 38  1  0  0  0  0
  4  5  2  0  0  0  0
  5  6  1  0  0  0  0
  5 49  1  0  0  0  0
  6  7  1  0  0  0  0
  6 36  2  0  0  0  0
  7  8  1  0  0  0  0
  7 50  1  0  0  0  0
  7 51  1  0  0  0  0
  8  9  1  0  0  0  0
  8 52  1  0  0  0  0
  9 10  1  0  0  0  0
  9 53  1  0  0  0  0
  9 54  1  0  0  0  0
 10 39  1  6  0  0  0
 10 11  1  0  0  0  0
 10 12  1  0  0  0  0
 11 55  1  0  0  0  0
 12 40  1  6  0  0  0
 12 33  1  0  0  0  0
 12 13  1  0  0  0  0
 13 14  1  0  0  0  0
 13 56  1  0  0  0  0
 13 57  1  0  0  0  0
 14 19  1  0  0  0  0
 14 15  2  0  0  0  0
 15 16  1  0  0  0  0
 15 58  1  0  0  0  0
 16 17  2  0  0  0  0
 16 20  1  0  0  0  0
 17 18  1  0  0  0  0
 17 59  1  0  0  0  0
 18 19  2  0  0  0  0
 18 60  1  0  0  0  0
 19 61  1  0  0  0  0
 20 21  1  0  0  0  0
 21 22  1  0  0  0  0
 21 62  1  0  0  0  0
 21 63  1  0  0  0  0
 22 23  1  0  0  0  0
 22 64  1  0  0  0  0
 22 65  1  0  0  0  0
 23 24  1  0  0  0  0
 23 66  1  0  0  0  0
 23 67  1  0  0  0  0
 24 25  1  0  0  0  0
 24 68  1  0  0  0  0
 24 69  1  0  0  0  0
 25 26  1  0  0  0  0
 26 41  1  1  0  0  0
 26 34  1  0  0  0  0
 26 27  1  0  0  0  0
 27 28  1  0  0  0  0
 27 70  1  0  0  0  0
 27 71  1  0  0  0  0
 28 29  1  0  0  0  0
 28 72  1  0  0  0  0
 28 73  1  0  0  0  0
 29 30  1  0  0  0  0
 29 34  1  0  0  0  0
 30 31  1  0  0  0  0
 30 74  1  0  0  0  0
 30 75  1  0  0  0  0
 31 32  2  0  0  0  0
 31 33  1  0  0  0  0
 33 76  1  0  0  0  0
 34 35  2  0  0  0  0
 36 37  1  0  0  0  0
 36 77  1  0  0  0  0
 37 38  2  0  0  0  0
 37 78  1  0  0  0  0
 38 79  1  0  0  0  0
M  END
>  <s_m_source_file>
BACE_89.smi

>  <i_m_source_file_index>
1

>  <i_lp_mmshare_version>
42013

>  <i_f3d_flags>
0

>  <s_epik_input>
W0NIM11bQ0hdKFtDSDNdKWMxW2NIXWMoW2NIXVtjSF1bY0hdMSlbQ0gyXVtOSF1bQ0gyXVtDQEBIXShbT0hdKVtDQEhdKFtDSDJdMilbTkhdQyg9TylbQ0gyXU4oQzM9TylbQ0gyXVtDSDJdW0NAQEhdM09bQ0gyXVtDSDJdW0NIMl1bQ0gyXU9jKFtjSF1jMjQpW2NIXVtjSF1bY0hdNA==

>  <s_epik_cmdline>
J2VwaWtfcHl0aG9uJywgJy1waCcsICc3LjAnLCAnLXRuJywgJzgnLCAnLW1hJywgJzIwMCcsICctaW1hZScsICc8aW5maWxlLm1hZT4nLCAnLW9tYWUnLCAnPG91dGZpbGUubWFlPic=

>  <r_lp_tautomer_probability>
1

>  <r_epik_Ionization_Penalty>
1.9888

>  <r_epik_Ionization_Penalty_Charging>
0.0000

>  <r_epik_Ionization_Penalty_Neutral>
1.9888

>  <r_epik_State_Penalty>
2.1166

>  <r_epik_Charging_Adjusted_Penalty>
2.11661

>  <i_epik_Tot_Q>
0

>  <i_epik_Tot_abs_Q>
0

>  <s_lp_Force_Field>
OPLS_2005

>  <r_lp_Energy>
42.9969

>  <b_lp_Chiralities_Consistent>
1

>  <s_lp_Variant>
BACE_89.smi:1-2

>  <chiral flag>
1

>  <version>
0

>  <s_i_glide_gridfile>
second_dock_grid_2

>  <i_i_glide_lignum>
181

>  <i_i_glide_rotatable_bonds>
7

>  <r_i_docking_score>
-1.44274

>  <r_i_glide_ligand_efficiency>
-0.0379668

>  <r_i_glide_ligand_efficiency_sa>
-0.127643

>  <r_i_glide_ligand_efficiency_ln>
-0.311097

>  <r_glide_XP_GScore>
-3.55934

>  <r_i_glide_gscore>
-3.55934

>  <r_i_glide_evdw>
-37.8584

>  <r_i_glide_ecoul>
-5.77978

>  <r_i_glide_energy>
-43.6382

>  <r_i_glide_einternal>
10.1485

>  <r_i_glide_emodel>
-54.7475

>  <r_glide_XP_HBond>
-0.706368

>  <i_i_glide_confnum>
1

>  <i_i_glide_posenum>
2

>  <r_i_glide_eff_state_penalty>
2.1166

>  <i_glide_XP_PoseRank>
1

$$$$
