BACE_66.smi:1
 OpenBabel09291822493D
Structure written by MMmdl.
 82 84  0  0  1  0  0  0  0  0999 V2000
   20.6539   42.8087   -1.2708 C   0  0  0  0  0  0  0  0  0  0  0  0
   20.3072   42.1976   -2.6406 C   0  0  0  0  0  0  0  0  0  0  0  0
   20.4401   40.6710   -2.6058 C   0  0  0  0  0  0  0  0  0  0  0  0
   21.1163   42.7821   -3.7955 C   0  0  0  0  0  0  0  0  0  0  0  0
   20.4588   43.2685   -4.9443 C   0  0  0  0  0  0  0  0  0  0  0  0
   21.1798   43.7973   -6.0333 C   0  0  0  0  0  0  0  0  0  0  0  0
   20.3977   44.2400   -7.2626 C   0  0  0  0  0  0  0  0  0  0  0  0
   21.0930   45.1347   -8.1980 N   0  0  0  0  0  0  0  0  0  0  0  0
   21.9966   44.5169   -9.1809 C   0  0  0  0  0  0  0  0  0  0  0  0
   21.3119   43.9832  -10.4645 C   0  0  1  0  0  0  0  0  0  0  0  0
   22.3219   43.8987  -11.4545 O   0  0  0  0  0  0  0  0  0  0  0  0
   20.6228   42.5889  -10.3834 C   0  0  2  0  0  0  0  0  0  0  0  0
   21.5890   41.4327  -10.0197 C   0  0  0  0  0  0  0  0  0  0  0  0
   20.9041   40.1334   -9.5369 C   0  0  2  0  0  0  0  0  0  0  0  0
   21.7620   39.4407   -8.4580 C   0  0  0  0  0  0  0  0  0  0  0  0
   20.6124   39.1786  -10.7138 C   0  0  0  0  0  0  0  0  0  0  0  0
   19.7247   37.9750  -10.3577 C   0  0  0  0  0  0  0  0  0  0  0  0
   18.3292   38.3919   -9.9564 C   0  0  0  0  0  0  0  0  0  0  0  0
   17.8013   38.2424   -8.7314 C   0  0  0  0  0  0  0  0  0  0  0  0
   16.4398   38.7835   -8.3582 C   0  0  0  0  0  0  0  0  0  0  0  0
   16.5600   40.2012   -7.7750 C   0  0  0  0  0  0  0  0  0  0  0  0
   15.4479   41.1379   -8.2648 C   0  0  0  0  0  0  0  0  0  0  0  0
   15.7725   42.5394   -8.0401 N   0  0  0  0  0  0  0  0  0  0  0  0
   16.4449   43.2992   -9.0109 C   0  0  0  0  0  0  0  0  0  0  0  0
   16.3515   44.7040   -8.9380 C   0  0  0  0  0  0  0  0  0  0  0  0
   16.9800   45.5201   -9.9025 C   0  0  0  0  0  0  0  0  0  0  0  0
   16.8599   47.0296   -9.8170 C   0  0  0  0  0  0  0  0  0  0  0  0
   16.4600   47.6189  -11.0370 O   0  0  0  0  0  0  0  0  0  0  0  0
   17.7382   44.9238  -10.9324 C   0  0  0  0  0  0  0  0  0  0  0  0
   17.8813   43.5223  -10.9927 C   0  0  0  0  0  0  0  0  0  0  0  0
   17.2118   42.7131  -10.0481 C   0  0  0  0  0  0  0  0  0  0  0  0
   18.7607   42.9051  -12.0425 C   0  0  0  0  0  0  0  0  0  0  0  0
   18.4462   42.9499  -13.2315 O   0  0  0  0  0  0  0  0  0  0  0  0
   19.9083   42.3327  -11.6383 N   0  0  0  0  0  0  0  0  0  0  0  0
   22.5900   43.8422   -5.9625 C   0  0  0  0  0  0  0  0  0  0  0  0
   23.2588   43.3301   -4.8396 C   0  0  0  0  0  0  0  0  0  0  0  0
   22.5270   42.8040   -3.7558 C   0  0  0  0  0  0  0  0  0  0  0  0
   20.6035   44.7407  -10.7991 H   0  0  0  0  0  0  0  0  0  0  0  0
   19.8707   42.6263   -9.6053 H   0  0  0  0  0  0  0  0  0  0  0  0
   19.9631   40.4068   -9.0576 H   0  0  0  0  0  0  0  0  0  0  0  0
   20.4549   43.8774   -1.2402 H   0  0  0  0  0  0  0  0  0  0  0  0
   21.6996   42.6552   -1.0085 H   0  0  0  0  0  0  0  0  0  0  0  0
   20.0485   42.3547   -0.4852 H   0  0  0  0  0  0  0  0  0  0  0  0
   19.2601   42.4327   -2.8274 H   0  0  0  0  0  0  0  0  0  0  0  0
   20.1030   40.2292   -3.5438 H   0  0  0  0  0  0  0  0  0  0  0  0
   19.8394   40.2428   -1.8024 H   0  0  0  0  0  0  0  0  0  0  0  0
   21.4763   40.3793   -2.4453 H   0  0  0  0  0  0  0  0  0  0  0  0
   19.3817   43.2144   -5.0038 H   0  0  0  0  0  0  0  0  0  0  0  0
   20.0288   43.3420   -7.7463 H   0  0  0  0  0  0  0  0  0  0  0  0
   19.5051   44.7529   -6.8973 H   0  0  0  0  0  0  0  0  0  0  0  0
   21.6397   45.7809   -7.6397 H   0  0  0  0  0  0  0  0  0  0  0  0
   22.6921   45.2958   -9.4969 H   0  0  0  0  0  0  0  0  0  0  0  0
   22.6276   43.7573   -8.7278 H   0  0  0  0  0  0  0  0  0  0  0  0
   22.9190   43.2041  -11.2199 H   0  0  0  0  0  0  0  0  0  0  0  0
   22.2700   41.2177  -10.8449 H   0  0  0  0  0  0  0  0  0  0  0  0
   22.2300   41.7713   -9.2092 H   0  0  0  0  0  0  0  0  0  0  0  0
   22.7216   39.1116   -8.8600 H   0  0  0  0  0  0  0  0  0  0  0  0
   21.2604   38.5694   -8.0379 H   0  0  0  0  0  0  0  0  0  0  0  0
   21.9644   40.1120   -7.6210 H   0  0  0  0  0  0  0  0  0  0  0  0
   20.1289   39.7197  -11.5270 H   0  0  0  0  0  0  0  0  0  0  0  0
   21.5625   38.8272  -11.1193 H   0  0  0  0  0  0  0  0  0  0  0  0
   19.6370   37.3497  -11.2397 H   0  0  0  0  0  0  0  0  0  0  0  0
   20.1765   37.3520   -9.5857 H   0  0  0  0  0  0  0  0  0  0  0  0
   17.7519   38.8869  -10.7230 H   0  0  0  0  0  0  0  0  0  0  0  0
   18.3784   37.7929   -7.9360 H   0  0  0  0  0  0  0  0  0  0  0  0
   15.8199   38.7886   -9.2551 H   0  0  0  0  0  0  0  0  0  0  0  0
   15.9508   38.1147   -7.6498 H   0  0  0  0  0  0  0  0  0  0  0  0
   16.5543   40.1508   -6.6858 H   0  0  0  0  0  0  0  0  0  0  0  0
   17.5271   40.6270   -8.0444 H   0  0  0  0  0  0  0  0  0  0  0  0
   15.2444   40.9852   -9.3236 H   0  0  0  0  0  0  0  0  0  0  0  0
   14.5196   40.9036   -7.7419 H   0  0  0  0  0  0  0  0  0  0  0  0
   15.4913   42.9483   -7.1476 H   0  0  0  0  0  0  0  0  0  0  0  0
   15.7787   45.1572   -8.1421 H   0  0  0  0  0  0  0  0  0  0  0  0
   16.1381   47.3056   -9.0468 H   0  0  0  0  0  0  0  0  0  0  0  0
   17.8234   47.4449   -9.5177 H   0  0  0  0  0  0  0  0  0  0  0  0
   17.1313   47.4496  -11.6817 H   0  0  0  0  0  0  0  0  0  0  0  0
   18.2454   45.5426  -11.6586 H   0  0  0  0  0  0  0  0  0  0  0  0
   17.3232   41.6406  -10.1119 H   0  0  0  0  0  0  0  0  0  0  0  0
   20.4568   41.8896  -12.3582 H   0  0  0  0  0  0  0  0  0  0  0  0
   23.1896   44.2497   -6.7577 H   0  0  0  0  0  0  0  0  0  0  0  0
   24.3381   43.3488   -4.8088 H   0  0  0  0  0  0  0  0  0  0  0  0
   23.0582   42.4192   -2.8995 H   0  0  0  0  0  0  0  0  0  0  0  0
  1  2  1  0  0  0  0
  1 41  1  0  0  0  0
  1 42  1  0  0  0  0
  1 43  1  0  0  0  0
  2  3  1  0  0  0  0
  2  4  1  0  0  0  0
  2 44  1  0  0  0  0
  3 45  1  0  0  0  0
  3 46  1  0  0  0  0
  3 47  1  0  0  0  0
  4 37  1  0  0  0  0
  4  5  2  0  0  0  0
  5  6  1  0  0  0  0
  5 48  1  0  0  0  0
  6  7  1  0  0  0  0
  6 35  2  0  0  0  0
  7  8  1  0  0  0  0
  7 49  1  0  0  0  0
  7 50  1  0  0  0  0
  8  9  1  0  0  0  0
  8 51  1  0  0  0  0
  9 10  1  0  0  0  0
  9 52  1  0  0  0  0
  9 53  1  0  0  0  0
 10 38  1  6  0  0  0
 10 11  1  0  0  0  0
 10 12  1  0  0  0  0
 11 54  1  0  0  0  0
 12 39  1  1  0  0  0
 12 34  1  0  0  0  0
 12 13  1  0  0  0  0
 13 14  1  0  0  0  0
 13 55  1  0  0  0  0
 13 56  1  0  0  0  0
 14 40  1  1  0  0  0
 14 15  1  0  0  0  0
 14 16  1  0  0  0  0
 15 57  1  0  0  0  0
 15 58  1  0  0  0  0
 15 59  1  0  0  0  0
 16 17  1  0  0  0  0
 16 60  1  0  0  0  0
 16 61  1  0  0  0  0
 17 18  1  0  0  0  0
 17 62  1  0  0  0  0
 17 63  1  0  0  0  0
 18 19  2  0  0  0  0
 18 64  1  0  0  0  0
 19 20  1  0  0  0  0
 19 65  1  0  0  0  0
 20 21  1  0  0  0  0
 20 66  1  0  0  0  0
 20 67  1  0  0  0  0
 21 22  1  0  0  0  0
 21 68  1  0  0  0  0
 21 69  1  0  0  0  0
 22 23  1  0  0  0  0
 22 70  1  0  0  0  0
 22 71  1  0  0  0  0
 23 24  1  0  0  0  0
 23 72  1  0  0  0  0
 24 31  1  0  0  0  0
 24 25  2  0  0  0  0
 25 26  1  0  0  0  0
 25 73  1  0  0  0  0
 26 27  1  0  0  0  0
 26 29  2  0  0  0  0
 27 28  1  0  0  0  0
 27 74  1  0  0  0  0
 27 75  1  0  0  0  0
 28 76  1  0  0  0  0
 29 30  1  0  0  0  0
 29 77  1  0  0  0  0
 30 31  2  0  0  0  0
 30 32  1  0  0  0  0
 31 78  1  0  0  0  0
 32 33  2  0  0  0  0
 32 34  1  0  0  0  0
 34 79  1  0  0  0  0
 35 36  1  0  0  0  0
 35 80  1  0  0  0  0
 36 37  2  0  0  0  0
 36 81  1  0  0  0  0
 37 82  1  0  0  0  0
M  END
>  <s_m_source_file>
BACE_66.smi

>  <i_m_source_file_index>
1

>  <i_lp_mmshare_version>
42013

>  <i_f3d_flags>
0

>  <s_epik_input>
W0NIM11bQ0hdKFtDSDNdKWMxW2NIXWMoW2NIXVtjSF1bY0hdMSlbQ0gyXVtOSF1bQ0gyXVtDQEBIXShbT0hdKVtDQEBIXShbTkhdQyg9TyljKFtjSF0yKVtjSF1jKFtjSF1jMjMpW0NIMl1bT0hdKVtDSDJdW0NASF0oW0NIM10pW0NIMl1bQ0gyXS9bQ0hdPVtDSF0vW0NIMl1bQ0gyXVtDSDJdW05IXTM=

>  <s_epik_cmdline>
J2VwaWtfcHl0aG9uJywgJy1waCcsICc3LjAnLCAnLXRuJywgJzgnLCAnLW1hJywgJzIwMCcsICctaW1hZScsICc8aW5maWxlLm1hZT4nLCAnLW9tYWUnLCAnPG91dGZpbGUubWFlPic=

>  <r_epik_Ionization_Penalty>
2.1278

>  <r_epik_Ionization_Penalty_Charging>
0.0000

>  <r_epik_Ionization_Penalty_Neutral>
2.1278

>  <r_epik_State_Penalty>
2.2653

>  <r_epik_Charging_Adjusted_Penalty>
2.26532

>  <i_epik_Tot_Q>
0

>  <i_epik_Tot_abs_Q>
0

>  <s_lp_Force_Field>
OPLS_2005

>  <r_lp_Energy>
36.9969

>  <b_lp_Chiralities_Consistent>
1

>  <s_lp_Variant>
BACE_66.smi:1-2

>  <chiral flag>
1

>  <version>
0

>  <s_i_glide_gridfile>
second_dock_grid_2

>  <i_i_glide_lignum>
132

>  <i_i_glide_rotatable_bonds>
9

>  <r_i_docking_score>
-2.88788

>  <r_i_glide_ligand_efficiency>
-0.0780508

>  <r_i_glide_ligand_efficiency_sa>
-0.260083

>  <r_i_glide_ligand_efficiency_ln>
-0.626314

>  <r_glide_XP_GScore>
-5.15318

>  <r_i_glide_gscore>
-5.15318

>  <r_i_glide_evdw>
-40.0846

>  <r_i_glide_ecoul>
-7.09977

>  <r_i_glide_energy>
-47.1843

>  <r_i_glide_einternal>
3.55773

>  <r_i_glide_emodel>
-60.4622

>  <r_glide_XP_HBond>
-0.979892

>  <i_i_glide_confnum>
1

>  <i_i_glide_posenum>
10

>  <r_i_glide_eff_state_penalty>
2.2653

>  <i_glide_XP_PoseRank>
1

$$$$
