BACE_121.smi:1
 OpenBabel09291822493D
Structure written by MMmdl.
 85 89  0  0  1  0  0  0  0  0999 V2000
   15.7289   41.1892   -8.0574 C   0  0  0  0  0  0  0  0  0  0  0  0
   16.3636   41.3198   -9.4667 C   0  0  0  0  0  0  0  0  0  0  0  0
   15.3946   40.6717  -10.4733 C   0  0  0  0  0  0  0  0  0  0  0  0
   16.4845   42.7450   -9.8339 N   0  0  0  0  0  0  0  0  0  0  0  0
   17.1569   43.6122   -8.8568 C   0  0  0  0  0  0  0  0  0  0  0  0
   17.5641   44.9741   -9.4687 C   0  0  1  0  0  0  0  0  0  0  0  0
   16.3800   45.6415   -9.8608 O   0  0  0  0  0  0  0  0  0  0  0  0
   18.3279   45.8968   -8.4825 C   0  0  2  0  0  0  0  0  0  0  0  0
   18.9481   47.1503   -9.1563 C   0  0  0  0  0  0  0  0  0  0  0  0
   19.9818   47.8708   -8.2947 C   0  0  0  0  0  0  0  0  0  0  0  0
   21.3588   47.7616   -8.5885 C   0  0  0  0  0  0  0  0  0  0  0  0
   22.3265   48.3679   -7.7569 C   0  0  0  0  0  0  0  0  0  0  0  0
   23.8048   48.2574   -8.1170 C   0  0  0  0  0  0  0  0  0  0  0  0
   24.7694   47.9502   -6.9487 C   0  0  0  0  0  0  0  0  0  0  0  0
   24.4878   46.6490   -6.1767 C   0  0  0  0  0  0  0  0  0  0  0  0
   24.7282   45.3702   -7.0065 C   0  0  0  0  0  0  0  0  0  0  0  0
   24.4098   44.1503   -6.2708 N   0  0  0  0  0  0  0  0  0  0  0  0
   23.0833   43.8567   -5.9209 C   0  0  0  0  0  0  0  0  0  0  0  0
   21.9846   44.5523   -6.4728 C   0  0  0  0  0  0  0  0  0  0  0  0
   20.6882   44.3016   -5.9884 C   0  0  0  0  0  0  0  0  0  0  0  0
   20.4995   43.3208   -4.9992 C   0  0  0  0  0  0  0  0  0  0  0  0
   21.5560   42.6254   -4.5231 N   0  3  0  0  0  0  0  0  0  0  0  0
   21.3109   41.6318   -3.4688 C   0  0  0  0  0  0  0  0  0  0  0  0
   21.1134   42.3041   -2.1223 C   0  0  0  0  0  0  0  0  0  0  0  0
   22.0601   43.2289   -1.6404 C   0  0  0  0  0  0  0  0  0  0  0  0
   21.9522   43.7650   -0.3455 C   0  0  0  0  0  0  0  0  0  0  0  0
   20.8579   43.4213    0.4604 C   0  0  0  0  0  0  0  0  0  0  0  0
   19.8710   42.5496   -0.0397 C   0  0  0  0  0  0  0  0  0  0  0  0
   20.0046   41.9825   -1.3204 C   0  0  0  0  0  0  0  0  0  0  0  0
   22.8244   42.8651   -4.9494 C   0  0  0  0  0  0  0  0  0  0  0  0
   19.5449   45.1293   -6.4500 C   0  0  0  0  0  0  0  0  0  0  0  0
   18.8596   45.7495   -5.6401 O   0  0  0  0  0  0  0  0  0  0  0  0
   19.3615   45.1409   -7.7762 N   0  0  0  0  0  0  0  0  0  0  0  0
   21.9019   49.0975   -6.6243 C   0  0  0  0  0  0  0  0  0  0  0  0
   20.5292   49.2129   -6.3286 C   0  0  0  0  0  0  0  0  0  0  0  0
   19.5711   48.6089   -7.1647 C   0  0  0  0  0  0  0  0  0  0  0  0
   17.7203   40.5986   -9.5954 C   0  0  0  0  0  0  0  0  0  0  0  0
   18.5343   40.8292  -10.7335 C   0  0  0  0  0  0  0  0  0  0  0  0
   19.7592   40.1528  -10.9006 C   0  0  0  0  0  0  0  0  0  0  0  0
   20.8349   40.4803  -12.4403 Br  0  0  0  0  0  0  0  0  0  0  0  0
   20.1899   39.2307   -9.9289 C   0  0  0  0  0  0  0  0  0  0  0  0
   19.3932   38.9862   -8.7948 C   0  0  0  0  0  0  0  0  0  0  0  0
   18.1684   39.6616   -8.6294 C   0  0  0  0  0  0  0  0  0  0  0  0
   18.1784   44.7957  -10.3531 H   0  0  0  0  0  0  0  0  0  0  0  0
   17.6062   46.2508   -7.7426 H   0  0  0  0  0  0  0  0  0  0  0  0
   15.4584   40.1577   -7.8281 H   0  0  0  0  0  0  0  0  0  0  0  0
   14.8100   41.7714   -7.9784 H   0  0  0  0  0  0  0  0  0  0  0  0
   16.3954   41.5296   -7.2630 H   0  0  0  0  0  0  0  0  0  0  0  0
   15.2730   39.6074  -10.2682 H   0  0  0  0  0  0  0  0  0  0  0  0
   15.7529   40.7647  -11.4986 H   0  0  0  0  0  0  0  0  0  0  0  0
   14.4034   41.1251  -10.4262 H   0  0  0  0  0  0  0  0  0  0  0  0
   15.5579   43.1042  -10.0329 H   0  0  0  0  0  0  0  0  0  0  0  0
   16.5204   43.7755   -7.9861 H   0  0  0  0  0  0  0  0  0  0  0  0
   18.0480   43.0999   -8.4928 H   0  0  0  0  0  0  0  0  0  0  0  0
   15.9731   45.1184  -10.5338 H   0  0  0  0  0  0  0  0  0  0  0  0
   19.4250   46.8605  -10.0926 H   0  0  0  0  0  0  0  0  0  0  0  0
   18.1604   47.8531   -9.4308 H   0  0  0  0  0  0  0  0  0  0  0  0
   21.6761   47.1967   -9.4541 H   0  0  0  0  0  0  0  0  0  0  0  0
   23.9281   47.5006   -8.8920 H   0  0  0  0  0  0  0  0  0  0  0  0
   24.1013   49.1991   -8.5792 H   0  0  0  0  0  0  0  0  0  0  0  0
   25.7888   47.9163   -7.3348 H   0  0  0  0  0  0  0  0  0  0  0  0
   24.7575   48.7823   -6.2454 H   0  0  0  0  0  0  0  0  0  0  0  0
   25.1361   46.6146   -5.2999 H   0  0  0  0  0  0  0  0  0  0  0  0
   23.4731   46.6850   -5.7848 H   0  0  0  0  0  0  0  0  0  0  0  0
   24.1677   45.3912   -7.9409 H   0  0  0  0  0  0  0  0  0  0  0  0
   25.7797   45.3197   -7.2926 H   0  0  0  0  0  0  0  0  0  0  0  0
   25.1590   43.7338   -5.7342 H   0  0  0  0  0  0  0  0  0  0  0  0
   22.1249   45.3231   -7.2157 H   0  0  0  0  0  0  0  0  0  0  0  0
   19.5374   43.0867   -4.5663 H   0  0  0  0  0  0  0  0  0  0  0  0
   20.4331   41.0503   -3.7579 H   0  0  0  0  0  0  0  0  0  0  0  0
   22.1564   40.9437   -3.4263 H   0  0  0  0  0  0  0  0  0  0  0  0
   22.9107   43.4999   -2.2434 H   0  0  0  0  0  0  0  0  0  0  0  0
   22.7012   44.4488    0.0238 H   0  0  0  0  0  0  0  0  0  0  0  0
   20.7619   43.8366    1.4530 H   0  0  0  0  0  0  0  0  0  0  0  0
   19.0215   42.2778    0.5700 H   0  0  0  0  0  0  0  0  0  0  0  0
   19.2602   41.2824   -1.6683 H   0  0  0  0  0  0  0  0  0  0  0  0
   23.6072   42.2941   -4.4716 H   0  0  0  0  0  0  0  0  0  0  0  0
   19.9983   44.5973   -8.3403 H   0  0  0  0  0  0  0  0  0  0  0  0
   22.6250   49.5684   -5.9761 H   0  0  0  0  0  0  0  0  0  0  0  0
   20.2094   49.7607   -5.4540 H   0  0  0  0  0  0  0  0  0  0  0  0
   18.5220   48.6909   -6.9217 H   0  0  0  0  0  0  0  0  0  0  0  0
   18.2132   41.5263  -11.4932 H   0  0  0  0  0  0  0  0  0  0  0  0
   21.1282   38.7107  -10.0547 H   0  0  0  0  0  0  0  0  0  0  0  0
   19.7189   38.2733   -8.0506 H   0  0  0  0  0  0  0  0  0  0  0  0
   17.5850   39.4355   -7.7488 H   0  0  0  0  0  0  0  0  0  0  0  0
  1  2  1  0  0  0  0
  1 46  1  0  0  0  0
  1 47  1  0  0  0  0
  1 48  1  0  0  0  0
  2  3  1  0  0  0  0
  2  4  1  0  0  0  0
  2 37  1  0  0  0  0
  3 49  1  0  0  0  0
  3 50  1  0  0  0  0
  3 51  1  0  0  0  0
  4  5  1  0  0  0  0
  4 52  1  0  0  0  0
  5  6  1  0  0  0  0
  5 53  1  0  0  0  0
  5 54  1  0  0  0  0
  6 44  1  6  0  0  0
  6  7  1  0  0  0  0
  6  8  1  0  0  0  0
  7 55  1  0  0  0  0
  8 45  1  1  0  0  0
  8 33  1  0  0  0  0
  8  9  1  0  0  0  0
  9 10  1  0  0  0  0
  9 56  1  0  0  0  0
  9 57  1  0  0  0  0
 10 36  1  0  0  0  0
 10 11  2  0  0  0  0
 11 12  1  0  0  0  0
 11 58  1  0  0  0  0
 12 13  1  0  0  0  0
 12 34  2  0  0  0  0
 13 14  1  0  0  0  0
 13 59  1  0  0  0  0
 13 60  1  0  0  0  0
 14 15  1  0  0  0  0
 14 61  1  0  0  0  0
 14 62  1  0  0  0  0
 15 16  1  0  0  0  0
 15 63  1  0  0  0  0
 15 64  1  0  0  0  0
 16 17  1  0  0  0  0
 16 65  1  0  0  0  0
 16 66  1  0  0  0  0
 17 18  1  0  0  0  0
 17 67  1  0  0  0  0
 18 30  1  0  0  0  0
 18 19  2  0  0  0  0
 19 20  1  0  0  0  0
 19 68  1  0  0  0  0
 20 21  2  0  0  0  0
 20 31  1  0  0  0  0
 21 22  1  0  0  0  0
 21 69  1  0  0  0  0
 22 23  1  0  0  0  0
 22 30  2  0  0  0  0
 23 24  1  0  0  0  0
 23 70  1  0  0  0  0
 23 71  1  0  0  0  0
 24 29  1  0  0  0  0
 24 25  2  0  0  0  0
 25 26  1  0  0  0  0
 25 72  1  0  0  0  0
 26 27  2  0  0  0  0
 26 73  1  0  0  0  0
 27 28  1  0  0  0  0
 27 74  1  0  0  0  0
 28 29  2  0  0  0  0
 28 75  1  0  0  0  0
 29 76  1  0  0  0  0
 30 77  1  0  0  0  0
 31 32  2  0  0  0  0
 31 33  1  0  0  0  0
 33 78  1  0  0  0  0
 34 35  1  0  0  0  0
 34 79  1  0  0  0  0
 35 36  2  0  0  0  0
 35 80  1  0  0  0  0
 36 81  1  0  0  0  0
 37 43  1  0  0  0  0
 37 38  2  0  0  0  0
 38 39  1  0  0  0  0
 38 82  1  0  0  0  0
 39 40  1  0  0  0  0
 39 41  2  0  0  0  0
 41 42  1  0  0  0  0
 41 83  1  0  0  0  0
 42 43  2  0  0  0  0
 42 84  1  0  0  0  0
 43 85  1  0  0  0  0
M  CHG  1  22   1
M  END
>  <s_m_source_file>
BACE_121.smi

>  <i_m_source_file_index>
1

>  <i_lp_mmshare_version>
42013

>  <i_f3d_flags>
0

>  <s_epik_input>
W2NIXTFbY0hdW2NIXWMoQnIpW2NIXWMxQyhbQ0gzXSkoW0NIM10pW05IXVtDSDJdW0NAQEhdKFtPSF0pW0NASF0oW0NIMl0yKVtOSF1DKD1PKWMoW2NIXVtuK10oW2NIXTMpW0NIMl1jNFtjSF1bY0hdW2NIXVtjSF1bY0hdNClbY0hdYzNbTkhdW0NIMl1bQ0gyXVtDSDJdW0NIMl1jKFtjSF1jMjUpW2NIXVtjSF1bY0hdNQ==

>  <s_epik_cmdline>
J2VwaWtfcHl0aG9uJywgJy1waCcsICc3LjAnLCAnLXRuJywgJzgnLCAnLW1hJywgJzIwMCcsICctaW1hZScsICc8aW5maWxlLm1hZT4nLCAnLW9tYWUnLCAnPG91dGZpbGUubWFlPic=

>  <r_lp_tautomer_probability>
1

>  <r_epik_Ionization_Penalty>
1.8436

>  <r_epik_Ionization_Penalty_Charging>
0.0000

>  <r_epik_Ionization_Penalty_Neutral>
1.8436

>  <r_epik_State_Penalty>
1.9606

>  <r_epik_Charging_Adjusted_Penalty>
1.96055

>  <i_epik_Tot_Q>
1

>  <i_epik_Tot_abs_Q>
1

>  <s_lp_Force_Field>
OPLS_2005

>  <r_lp_Energy>
42.2154

>  <b_lp_Chiralities_Consistent>
1

>  <s_lp_Variant>
BACE_121.smi:1-2

>  <chiral flag>
1

>  <version>
0

>  <s_i_glide_gridfile>
second_dock_grid_2

>  <i_i_glide_lignum>
248

>  <i_i_glide_rotatable_bonds>
8

>  <r_i_docking_score>
-2.63324

>  <r_i_glide_ligand_efficiency>
-0.0612382

>  <r_i_glide_ligand_efficiency_sa>
-0.214542

>  <r_i_glide_ligand_efficiency_ln>
-0.553062

>  <r_glide_XP_GScore>
-4.59384

>  <r_i_glide_gscore>
-4.59384

>  <r_i_glide_evdw>
-46.1904

>  <r_i_glide_ecoul>
-8.17596

>  <r_i_glide_energy>
-54.3664

>  <r_i_glide_einternal>
4.60165

>  <r_i_glide_emodel>
-68.1321

>  <r_glide_XP_HBond>
-0.48

>  <i_i_glide_confnum>
1

>  <i_i_glide_posenum>
4

>  <r_i_glide_eff_state_penalty>
1.9606

>  <i_glide_XP_PoseRank>
1

$$$$
