BACE_65.smi:1
 OpenBabel09291822493D
Structure written by MMmdl.
 80 82  0  0  1  0  0  0  0  0999 V2000
   22.4955   41.1712   -4.2689 C   0  0  0  0  0  0  0  0  0  0  0  0
   21.7714   40.9947   -5.4778 O   0  0  0  0  0  0  0  0  0  0  0  0
   22.0732   39.7730   -6.1274 C   0  0  0  0  0  0  0  0  0  0  0  0
   21.1484   39.5169   -7.2996 C   0  0  0  0  0  0  0  0  0  0  0  0
   19.8748   38.9508   -7.0844 C   0  0  0  0  0  0  0  0  0  0  0  0
   19.0065   38.6991   -8.1657 C   0  0  0  0  0  0  0  0  0  0  0  0
   19.4145   39.0615   -9.4734 C   0  0  0  0  0  0  0  0  0  0  0  0
   20.6624   39.6901   -9.6887 C   0  0  0  0  0  0  0  0  0  0  0  0
   21.5489   39.8648   -8.6059 C   0  0  0  0  0  0  0  0  0  0  0  0
   21.0301   40.1560  -11.0673 C   0  0  0  0  0  0  0  0  0  0  0  0
   21.0864   39.3508  -11.9920 O   0  0  0  0  0  0  0  0  0  0  0  0
   21.2598   41.4656  -11.2971 N   0  0  0  0  0  0  0  0  0  0  0  0
   21.0688   42.6752  -10.4771 C   0  0  1  0  0  0  0  0  0  0  0  0
   19.7562   42.7161   -9.6427 C   0  0  0  0  0  0  0  0  0  0  0  0
   18.4218   42.4377  -10.3779 C   0  0  2  0  0  0  0  0  0  0  0  0
   18.0847   43.5628  -11.3748 C   0  0  0  0  0  0  0  0  0  0  0  0
   17.3121   42.2290   -9.3209 C   0  0  0  0  0  0  0  0  0  0  0  0
   15.9094   41.9119   -9.8755 C   0  0  0  0  0  0  0  0  0  0  0  0
   14.8820   41.5375   -8.7854 C   0  0  0  0  0  0  0  0  0  0  0  0
   15.1359   40.2342   -7.9920 C   0  0  0  0  0  0  0  0  0  0  0  0
   14.8353   38.9211   -8.7483 C   0  0  0  0  0  0  0  0  0  0  0  0
   15.9741   38.3788   -9.6390 C   0  0  0  0  0  0  0  0  0  0  0  0
   16.9744   37.4503   -8.9239 C   0  0  0  0  0  0  0  0  0  0  0  0
   17.7572   38.1146   -7.8949 N   0  0  0  0  0  0  0  0  0  0  0  0
   22.3098   43.0564   -9.6180 C   0  0  2  0  0  0  0  0  0  0  0  0
   22.1434   44.4042   -9.2255 O   0  0  0  0  0  0  0  0  0  0  0  0
   23.6858   43.0254  -10.3199 C   0  0  0  0  0  0  0  0  0  0  0  0
   24.2409   41.6756  -10.4392 N   0  0  0  0  0  0  0  0  0  0  0  0
   25.6946   41.6071  -10.2652 C   0  0  0  0  0  0  0  0  0  0  0  0
   26.4733   42.4543  -11.2885 C   0  0  0  0  0  0  0  0  0  0  0  0
   27.9664   42.4210  -11.0353 C   0  0  0  0  0  0  0  0  0  0  0  0
   28.8441   41.7806  -11.9319 C   0  0  0  0  0  0  0  0  0  0  0  0
   30.2225   41.8056  -11.6481 C   0  0  0  0  0  0  0  0  0  0  0  0
   30.7488   42.3899  -10.5490 N   0  0  0  0  0  0  0  0  0  0  0  0
   29.9037   43.0109   -9.7013 C   0  0  0  0  0  0  0  0  0  0  0  0
   28.5097   43.0572   -9.9014 C   0  0  0  0  0  0  0  0  0  0  0  0
   20.9802   43.4600  -11.2281 H   0  0  0  0  0  0  0  0  0  0  0  0
   18.5066   41.5099  -10.9417 H   0  0  0  0  0  0  0  0  0  0  0  0
   22.3469   42.4658   -8.7026 H   0  0  0  0  0  0  0  0  0  0  0  0
   22.2243   42.1239   -3.8153 H   0  0  0  0  0  0  0  0  0  0  0  0
   23.5745   41.1820   -4.4396 H   0  0  0  0  0  0  0  0  0  0  0  0
   22.2740   40.3815   -3.5506 H   0  0  0  0  0  0  0  0  0  0  0  0
   23.1108   39.7852   -6.4674 H   0  0  0  0  0  0  0  0  0  0  0  0
   21.9808   38.9509   -5.4210 H   0  0  0  0  0  0  0  0  0  0  0  0
   19.5715   38.7019   -6.0769 H   0  0  0  0  0  0  0  0  0  0  0  0
   18.7582   38.9072  -10.3140 H   0  0  0  0  0  0  0  0  0  0  0  0
   22.5307   40.2844   -8.7725 H   0  0  0  0  0  0  0  0  0  0  0  0
   21.5598   41.6511  -12.2403 H   0  0  0  0  0  0  0  0  0  0  0  0
   19.8508   42.0339   -8.7997 H   0  0  0  0  0  0  0  0  0  0  0  0
   19.6683   43.6957   -9.1753 H   0  0  0  0  0  0  0  0  0  0  0  0
   17.9484   44.5170  -10.8633 H   0  0  0  0  0  0  0  0  0  0  0  0
   17.1726   43.3473  -11.9307 H   0  0  0  0  0  0  0  0  0  0  0  0
   18.8757   43.6911  -12.1129 H   0  0  0  0  0  0  0  0  0  0  0  0
   17.6235   41.4104   -8.6740 H   0  0  0  0  0  0  0  0  0  0  0  0
   17.2472   43.1051   -8.6745 H   0  0  0  0  0  0  0  0  0  0  0  0
   15.5334   42.7967  -10.3882 H   0  0  0  0  0  0  0  0  0  0  0  0
   15.9593   41.1436  -10.6434 H   0  0  0  0  0  0  0  0  0  0  0  0
   14.8354   42.3609   -8.0711 H   0  0  0  0  0  0  0  0  0  0  0  0
   13.8950   41.4857   -9.2406 H   0  0  0  0  0  0  0  0  0  0  0  0
   16.1284   40.2191   -7.5441 H   0  0  0  0  0  0  0  0  0  0  0  0
   14.4608   40.2590   -7.1361 H   0  0  0  0  0  0  0  0  0  0  0  0
   14.5698   38.1511   -8.0188 H   0  0  0  0  0  0  0  0  0  0  0  0
   13.9338   39.0610   -9.3449 H   0  0  0  0  0  0  0  0  0  0  0  0
   15.5135   37.8029  -10.4400 H   0  0  0  0  0  0  0  0  0  0  0  0
   16.5100   39.1804  -10.1360 H   0  0  0  0  0  0  0  0  0  0  0  0
   16.4368   36.6297   -8.4469 H   0  0  0  0  0  0  0  0  0  0  0  0
   17.6409   36.9914   -9.6540 H   0  0  0  0  0  0  0  0  0  0  0  0
   17.4914   37.9013   -6.9394 H   0  0  0  0  0  0  0  0  0  0  0  0
   22.8117   44.6109   -8.5875 H   0  0  0  0  0  0  0  0  0  0  0  0
   23.6287   43.4984  -11.3010 H   0  0  0  0  0  0  0  0  0  0  0  0
   24.3677   43.6357   -9.7261 H   0  0  0  0  0  0  0  0  0  0  0  0
   24.0033   41.2934  -11.3557 H   0  0  0  0  0  0  0  0  0  0  0  0
   25.9459   41.9314   -9.2531 H   0  0  0  0  0  0  0  0  0  0  0  0
   26.0160   40.5629  -10.3353 H   0  0  0  0  0  0  0  0  0  0  0  0
   26.2647   42.1209  -12.3041 H   0  0  0  0  0  0  0  0  0  0  0  0
   26.1677   43.4985  -11.2437 H   0  0  0  0  0  0  0  0  0  0  0  0
   28.4838   41.2812  -12.8190 H   0  0  0  0  0  0  0  0  0  0  0  0
   30.9296   41.3504  -12.3250 H   0  0  0  0  0  0  0  0  0  0  0  0
   30.3533   43.4820   -8.8391 H   0  0  0  0  0  0  0  0  0  0  0  0
   27.8795   43.5720   -9.1901 H   0  0  0  0  0  0  0  0  0  0  0  0
  1  2  1  0  0  0  0
  1 40  1  0  0  0  0
  1 41  1  0  0  0  0
  1 42  1  0  0  0  0
  2  3  1  0  0  0  0
  3  4  1  0  0  0  0
  3 43  1  0  0  0  0
  3 44  1  0  0  0  0
  4  9  1  0  0  0  0
  4  5  2  0  0  0  0
  5  6  1  0  0  0  0
  5 45  1  0  0  0  0
  6 24  1  0  0  0  0
  6  7  2  0  0  0  0
  7  8  1  0  0  0  0
  7 46  1  0  0  0  0
  8  9  2  0  0  0  0
  8 10  1  0  0  0  0
  9 47  1  0  0  0  0
 10 11  2  0  0  0  0
 10 12  1  0  0  0  0
 12 13  1  0  0  0  0
 12 48  1  0  0  0  0
 13 37  1  6  0  0  0
 13 14  1  0  0  0  0
 13 25  1  0  0  0  0
 14 15  1  0  0  0  0
 14 49  1  0  0  0  0
 14 50  1  0  0  0  0
 15 38  1  6  0  0  0
 15 16  1  0  0  0  0
 15 17  1  0  0  0  0
 16 51  1  0  0  0  0
 16 52  1  0  0  0  0
 16 53  1  0  0  0  0
 17 18  1  0  0  0  0
 17 54  1  0  0  0  0
 17 55  1  0  0  0  0
 18 19  1  0  0  0  0
 18 56  1  0  0  0  0
 18 57  1  0  0  0  0
 19 20  1  0  0  0  0
 19 58  1  0  0  0  0
 19 59  1  0  0  0  0
 20 21  1  0  0  0  0
 20 60  1  0  0  0  0
 20 61  1  0  0  0  0
 21 22  1  0  0  0  0
 21 62  1  0  0  0  0
 21 63  1  0  0  0  0
 22 23  1  0  0  0  0
 22 64  1  0  0  0  0
 22 65  1  0  0  0  0
 23 24  1  0  0  0  0
 23 66  1  0  0  0  0
 23 67  1  0  0  0  0
 24 68  1  0  0  0  0
 25 39  1  1  0  0  0
 25 26  1  0  0  0  0
 25 27  1  0  0  0  0
 26 69  1  0  0  0  0
 27 28  1  0  0  0  0
 27 70  1  0  0  0  0
 27 71  1  0  0  0  0
 28 29  1  0  0  0  0
 28 72  1  0  0  0  0
 29 30  1  0  0  0  0
 29 73  1  0  0  0  0
 29 74  1  0  0  0  0
 30 31  1  0  0  0  0
 30 75  1  0  0  0  0
 30 76  1  0  0  0  0
 31 36  1  0  0  0  0
 31 32  2  0  0  0  0
 32 33  1  0  0  0  0
 32 77  1  0  0  0  0
 33 34  2  0  0  0  0
 33 78  1  0  0  0  0
 34 35  1  0  0  0  0
 35 36  2  0  0  0  0
 35 79  1  0  0  0  0
 36 80  1  0  0  0  0
M  END
>  <s_m_source_file>
BACE_65.smi

>  <i_m_source_file_index>
1

>  <i_lp_mmshare_version>
42013

>  <i_f3d_flags>
0

>  <s_epik_input>
W05IXTFbQ0gyXVtDSDJdW0NIMl1bQ0gyXVtDSDJdW0NIMl1bQ0gyXVtDQEBIXShbQ0gzXSlbQ0gyXVtDQEhdKFtOSF1DKD1PKWMoW2NIXTIpW2NIXWMoW2NIXWMxMilbQ0gyXU9bQ0gzXSlbQ0BIXShbT0hdKVtDSDJdW05IXVtDSDJdW0NIMl1jM1tjSF1bY0hdbltjSF1bY0hdMw==

>  <s_epik_cmdline>
J2VwaWtfcHl0aG9uJywgJy1waCcsICc3LjAnLCAnLXRuJywgJzgnLCAnLW1hJywgJzIwMCcsICctaW1hZScsICc8aW5maWxlLm1hZT4nLCAnLW9tYWUnLCAnPG91dGZpbGUubWFlPic=

>  <r_epik_Ionization_Penalty>
2.5509

>  <r_epik_Ionization_Penalty_Charging>
0.0000

>  <r_epik_Ionization_Penalty_Neutral>
2.5509

>  <r_epik_State_Penalty>
2.6192

>  <r_epik_Charging_Adjusted_Penalty>
2.61919

>  <i_epik_Tot_Q>
0

>  <i_epik_Tot_abs_Q>
0

>  <s_lp_Force_Field>
OPLS_2005

>  <r_lp_Energy>
45.489

>  <b_lp_Chiralities_Consistent>
1

>  <s_lp_Variant>
BACE_65.smi:1-2

>  <chiral flag>
1

>  <version>
0

>  <s_i_glide_gridfile>
second_dock_grid_2

>  <i_i_glide_lignum>
130

>  <i_i_glide_rotatable_bonds>
9

>  <r_i_docking_score>
-2.00104

>  <r_i_glide_ligand_efficiency>
-0.0555843

>  <r_i_glide_ligand_efficiency_sa>
-0.183535

>  <r_i_glide_ligand_efficiency_ln>
-0.436572

>  <r_glide_XP_GScore>
-4.62024

>  <r_i_glide_gscore>
-4.62024

>  <r_i_glide_evdw>
-45.2269

>  <r_i_glide_ecoul>
-4.46294

>  <r_i_glide_energy>
-49.6899

>  <r_i_glide_einternal>
5.94113

>  <r_i_glide_emodel>
-69.017

>  <r_glide_XP_HBond>
0

>  <i_i_glide_confnum>
1

>  <i_i_glide_posenum>
1

>  <r_i_glide_eff_state_penalty>
2.6192

>  <i_glide_XP_PoseRank>
1

$$$$
