BACE_74.smi:1
 OpenBabel09291822493D
Structure written by MMmdl.
 80 82  0  0  1  0  0  0  0  0999 V2000
   14.8568   39.1931   -7.6309 C   0  0  0  0  0  0  0  0  0  0  0  0
   16.0824   39.3429   -8.5641 C   0  0  2  0  0  0  0  0  0  0  0  0
   16.9116   38.0353   -8.5217 C   0  0  0  0  0  0  0  0  0  0  0  0
   17.9971   37.8684   -9.6010 C   0  0  0  0  0  0  0  0  0  0  0  0
   19.1681   38.6248   -9.3137 O   0  0  0  0  0  0  0  0  0  0  0  0
   20.3042   38.1509  -10.0263 C   0  0  0  0  0  0  0  0  0  0  0  0
   21.5013   39.1057   -9.9000 C   0  0  0  0  0  0  0  0  0  0  0  0
   21.4805   40.2594  -10.9138 C   0  0  0  0  0  0  0  0  0  0  0  0
   20.1561   41.0183  -10.8637 C   0  0  0  0  0  0  0  0  0  0  0  0
   20.1702   42.2388  -11.6498 N   0  0  0  0  0  0  0  0  0  0  0  0
   19.0806   43.0913  -11.4204 C   0  0  0  0  0  0  0  0  0  0  0  0
   17.7744   42.5707  -11.2555 C   0  0  0  0  0  0  0  0  0  0  0  0
   16.7364   43.4010  -10.7906 C   0  0  0  0  0  0  0  0  0  0  0  0
   16.9497   44.7907  -10.6800 C   0  0  0  0  0  0  0  0  0  0  0  0
   18.2322   45.3249  -10.9002 C   0  0  0  0  0  0  0  0  0  0  0  0
   19.3068   44.4736  -11.2187 C   0  0  0  0  0  0  0  0  0  0  0  0
   20.9055   45.1333  -11.2414 Cl  0  0  0  0  0  0  0  0  0  0  0  0
   15.4264   42.8140  -10.3761 C   0  0  0  0  0  0  0  0  0  0  0  0
   14.4699   42.8947  -11.1431 O   0  0  0  0  0  0  0  0  0  0  0  0
   15.3121   42.2315   -9.1629 N   0  0  0  0  0  0  0  0  0  0  0  0
   16.2546   41.9306   -8.0611 C   0  0  1  0  0  0  0  0  0  0  0  0
   16.9700   40.5696   -8.2264 C   0  0  0  0  0  0  0  0  0  0  0  0
   17.1615   43.0814   -7.5045 C   0  0  2  0  0  0  0  0  0  0  0  0
   16.5083   44.3264   -7.6402 O   0  0  0  0  0  0  0  0  0  0  0  0
   18.6169   43.1753   -8.0211 C   0  0  0  0  0  0  0  0  0  0  0  0
   19.6242   42.4278   -7.2498 N   0  0  0  0  0  0  0  0  0  0  0  0
   20.0120   42.9533   -5.9310 C   0  0  0  0  0  0  0  0  0  0  0  0
   20.6732   44.3204   -5.9489 C   0  0  0  0  0  0  0  0  0  0  0  0
   19.9047   45.4911   -6.1267 C   0  0  0  0  0  0  0  0  0  0  0  0
   20.5530   46.7445   -6.1909 C   0  0  0  0  0  0  0  0  0  0  0  0
   21.9601   46.7507   -6.0320 C   0  0  0  0  0  0  0  0  0  0  0  0
   22.6320   45.5324   -5.8211 C   0  0  0  0  0  0  0  0  0  0  0  0
   22.0103   44.3390   -5.7803 N   0  0  0  0  0  0  0  0  0  0  0  0
   19.7665   48.0318   -6.4917 C   0  0  0  0  0  0  0  0  0  0  0  0
   18.3369   47.9811   -5.9080 C   0  0  0  0  0  0  0  0  0  0  0  0
   19.6654   48.1907   -8.0190 C   0  0  0  0  0  0  0  0  0  0  0  0
   20.4583   49.2809   -5.9027 C   0  0  0  0  0  0  0  0  0  0  0  0
   15.7004   39.4597   -9.5791 H   0  0  0  0  0  0  0  0  0  0  0  0
   15.5514   41.7697   -7.2410 H   0  0  0  0  0  0  0  0  0  0  0  0
   17.2307   42.9482   -6.4400 H   0  0  0  0  0  0  0  0  0  0  0  0
   15.1417   39.2599   -6.5797 H   0  0  0  0  0  0  0  0  0  0  0  0
   14.3778   38.2226   -7.7611 H   0  0  0  0  0  0  0  0  0  0  0  0
   14.0691   39.9288   -7.8192 H   0  0  0  0  0  0  0  0  0  0  0  0
   17.3567   37.9002   -7.5339 H   0  0  0  0  0  0  0  0  0  0  0  0
   16.2227   37.1968   -8.6393 H   0  0  0  0  0  0  0  0  0  0  0  0
   18.2533   36.8085   -9.6511 H   0  0  0  0  0  0  0  0  0  0  0  0
   17.6137   38.1512  -10.5813 H   0  0  0  0  0  0  0  0  0  0  0  0
   20.5901   37.1984   -9.5977 H   0  0  0  0  0  0  0  0  0  0  0  0
   20.0601   37.9718  -11.0734 H   0  0  0  0  0  0  0  0  0  0  0  0
   21.5455   39.4972   -8.8842 H   0  0  0  0  0  0  0  0  0  0  0  0
   22.4243   38.5452  -10.0441 H   0  0  0  0  0  0  0  0  0  0  0  0
   22.3125   40.9322  -10.6977 H   0  0  0  0  0  0  0  0  0  0  0  0
   21.6477   39.8776  -11.9227 H   0  0  0  0  0  0  0  0  0  0  0  0
   19.3624   40.3663  -11.2286 H   0  0  0  0  0  0  0  0  0  0  0  0
   19.9345   41.2600   -9.8247 H   0  0  0  0  0  0  0  0  0  0  0  0
   21.0653   42.7107  -11.6617 H   0  0  0  0  0  0  0  0  0  0  0  0
   17.5799   41.5151  -11.3679 H   0  0  0  0  0  0  0  0  0  0  0  0
   16.1488   45.4404  -10.3575 H   0  0  0  0  0  0  0  0  0  0  0  0
   18.4069   46.3803  -10.7499 H   0  0  0  0  0  0  0  0  0  0  0  0
   14.3835   41.8730   -8.9879 H   0  0  0  0  0  0  0  0  0  0  0  0
   17.5063   40.3593   -7.2995 H   0  0  0  0  0  0  0  0  0  0  0  0
   17.7296   40.6658   -8.9981 H   0  0  0  0  0  0  0  0  0  0  0  0
   15.7718   44.2846   -7.0388 H   0  0  0  0  0  0  0  0  0  0  0  0
   18.6315   42.7679   -9.0125 H   0  0  0  0  0  0  0  0  0  0  0  0
   18.9214   44.2114   -8.1407 H   0  0  0  0  0  0  0  0  0  0  0  0
   19.3143   41.4677   -7.1275 H   0  0  0  0  0  0  0  0  0  0  0  0
   19.1718   42.9778   -5.2499 H   0  0  0  0  0  0  0  0  0  0  0  0
   20.7139   42.2538   -5.4728 H   0  0  0  0  0  0  0  0  0  0  0  0
   18.8405   45.3973   -6.2607 H   0  0  0  0  0  0  0  0  0  0  0  0
   22.5403   47.6578   -6.0847 H   0  0  0  0  0  0  0  0  0  0  0  0
   23.7046   45.5187   -5.6930 H   0  0  0  0  0  0  0  0  0  0  0  0
   17.8218   48.9331   -6.0426 H   0  0  0  0  0  0  0  0  0  0  0  0
   18.3572   47.7649   -4.8417 H   0  0  0  0  0  0  0  0  0  0  0  0
   17.7122   47.2338   -6.3953 H   0  0  0  0  0  0  0  0  0  0  0  0
   19.1511   47.3426   -8.4716 H   0  0  0  0  0  0  0  0  0  0  0  0
   20.6543   48.2516   -8.4744 H   0  0  0  0  0  0  0  0  0  0  0  0
   19.1178   49.0920   -8.2956 H   0  0  0  0  0  0  0  0  0  0  0  0
   19.8523   50.1715   -6.0632 H   0  0  0  0  0  0  0  0  0  0  0  0
   21.4222   49.4795   -6.3705 H   0  0  0  0  0  0  0  0  0  0  0  0
   20.6151   49.1782   -4.8287 H   0  0  0  0  0  0  0  0  0  0  0  0
  1  2  1  0  0  0  0
  1 41  1  0  0  0  0
  1 42  1  0  0  0  0
  1 43  1  0  0  0  0
  2 38  1  6  0  0  0
  2 22  1  0  0  0  0
  2  3  1  0  0  0  0
  3  4  1  0  0  0  0
  3 44  1  0  0  0  0
  3 45  1  0  0  0  0
  4  5  1  0  0  0  0
  4 46  1  0  0  0  0
  4 47  1  0  0  0  0
  5  6  1  0  0  0  0
  6  7  1  0  0  0  0
  6 48  1  0  0  0  0
  6 49  1  0  0  0  0
  7  8  1  0  0  0  0
  7 50  1  0  0  0  0
  7 51  1  0  0  0  0
  8  9  1  0  0  0  0
  8 52  1  0  0  0  0
  8 53  1  0  0  0  0
  9 10  1  0  0  0  0
  9 54  1  0  0  0  0
  9 55  1  0  0  0  0
 10 11  1  0  0  0  0
 10 56  1  0  0  0  0
 11 16  1  0  0  0  0
 11 12  2  0  0  0  0
 12 13  1  0  0  0  0
 12 57  1  0  0  0  0
 13 14  2  0  0  0  0
 13 18  1  0  0  0  0
 14 15  1  0  0  0  0
 14 58  1  0  0  0  0
 15 16  2  0  0  0  0
 15 59  1  0  0  0  0
 16 17  1  0  0  0  0
 18 19  2  0  0  0  0
 18 20  1  0  0  0  0
 20 21  1  0  0  0  0
 20 60  1  0  0  0  0
 21 39  1  1  0  0  0
 21 22  1  0  0  0  0
 21 23  1  0  0  0  0
 22 61  1  0  0  0  0
 22 62  1  0  0  0  0
 23 40  1  1  0  0  0
 23 24  1  0  0  0  0
 23 25  1  0  0  0  0
 24 63  1  0  0  0  0
 25 26  1  0  0  0  0
 25 64  1  0  0  0  0
 25 65  1  0  0  0  0
 26 27  1  0  0  0  0
 26 66  1  0  0  0  0
 27 28  1  0  0  0  0
 27 67  1  0  0  0  0
 27 68  1  0  0  0  0
 28 33  1  0  0  0  0
 28 29  2  0  0  0  0
 29 30  1  0  0  0  0
 29 69  1  0  0  0  0
 30 31  2  0  0  0  0
 30 34  1  0  0  0  0
 31 32  1  0  0  0  0
 31 70  1  0  0  0  0
 32 33  2  0  0  0  0
 32 71  1  0  0  0  0
 34 35  1  0  0  0  0
 34 36  1  0  0  0  0
 34 37  1  0  0  0  0
 35 72  1  0  0  0  0
 35 73  1  0  0  0  0
 35 74  1  0  0  0  0
 36 75  1  0  0  0  0
 36 76  1  0  0  0  0
 36 77  1  0  0  0  0
 37 78  1  0  0  0  0
 37 79  1  0  0  0  0
 37 80  1  0  0  0  0
M  END
>  <s_m_source_file>
BACE_74.smi

>  <i_m_source_file_index>
1

>  <i_lp_mmshare_version>
42013

>  <i_f3d_flags>
0

>  <s_epik_input>
W05IXTFbQ0gyXVtDSDJdW0NIMl1bQ0gyXU9bQ0gyXVtDSDJdW0NAQEhdKFtDSDNdKVtDSDJdW0NASF0oW05IXUMoPU8pYyhbY0hdYzEyKVtjSF1bY0hdYzJDbClbQ0BIXShbT0hdKVtDSDJdW05IXVtDSDJdYzNbY0hdYyhbY0hdW2NIXW4zKUMoW0NIM10pKFtDSDNdKVtDSDNd

>  <s_epik_cmdline>
J2VwaWtfcHl0aG9uJywgJy1waCcsICc3LjAnLCAnLXRuJywgJzgnLCAnLW1hJywgJzIwMCcsICctaW1hZScsICc8aW5maWxlLm1hZT4nLCAnLW9tYWUnLCAnPG91dGZpbGUubWFlPic=

>  <r_epik_Ionization_Penalty>
1.7253

>  <r_epik_Ionization_Penalty_Charging>
0.0000

>  <r_epik_Ionization_Penalty_Neutral>
1.7253

>  <r_epik_State_Penalty>
1.8313

>  <r_epik_Charging_Adjusted_Penalty>
1.83129

>  <i_epik_Tot_Q>
0

>  <i_epik_Tot_abs_Q>
0

>  <s_lp_Force_Field>
OPLS_2005

>  <r_lp_Energy>
41.5136

>  <b_lp_Chiralities_Consistent>
1

>  <s_lp_Variant>
BACE_74.smi:1-2

>  <chiral flag>
1

>  <version>
0

>  <s_i_glide_gridfile>
second_dock_grid_2

>  <i_i_glide_lignum>
149

>  <i_i_glide_rotatable_bonds>
7

>  <r_i_docking_score>
-0.132694

>  <r_i_glide_ligand_efficiency>
-0.00358633

>  <r_i_glide_ligand_efficiency_sa>
-0.0119505

>  <r_i_glide_ligand_efficiency_ln>
-0.0287783

>  <r_glide_XP_GScore>
-1.96399

>  <r_i_glide_gscore>
-1.96399

>  <r_i_glide_evdw>
-37.2133

>  <r_i_glide_ecoul>
-10.1112

>  <r_i_glide_energy>
-47.3245

>  <r_i_glide_einternal>
2.56831

>  <r_i_glide_emodel>
-61.1904

>  <r_glide_XP_HBond>
-0.7

>  <i_i_glide_confnum>
1

>  <i_i_glide_posenum>
12

>  <r_i_glide_eff_state_penalty>
1.8313

>  <i_glide_XP_PoseRank>
1

$$$$
