BACE_41.smi:1
 OpenBabel09291822493D
Structure written by MMmdl.
 84 86  0  0  1  0  0  0  0  0999 V2000
   16.2885   37.4298   -9.3390 C   0  0  0  0  0  0  0  0  0  0  0  0
   16.8417   38.8390   -9.0686 C   0  0  0  0  0  0  0  0  0  0  0  0
   16.7527   39.7314  -10.3170 C   0  0  0  0  0  0  0  0  0  0  0  0
   18.2626   38.7941   -8.5174 C   0  0  0  0  0  0  0  0  0  0  0  0
   19.3057   38.2188   -9.2748 C   0  0  0  0  0  0  0  0  0  0  0  0
   20.6159   38.1821   -8.7613 C   0  0  0  0  0  0  0  0  0  0  0  0
   20.8949   38.7225   -7.4925 C   0  0  0  0  0  0  0  0  0  0  0  0
   19.8602   39.2945   -6.7246 C   0  0  0  0  0  0  0  0  0  0  0  0
   20.1624   39.8654   -5.3505 C   0  0  0  0  0  0  0  0  0  0  0  0
   20.4653   41.2956   -5.4514 N   0  3  0  0  0  0  0  0  0  0  0  0
   20.8627   41.9501   -4.1854 C   0  0  0  0  0  0  0  0  0  0  0  0
   22.0413   42.9300   -4.3932 C   0  0  1  0  0  0  0  0  0  0  0  0
   23.2154   42.1551   -4.4590 O   0  0  0  0  0  0  0  0  0  0  0  0
   21.8964   43.8747   -5.6237 C   0  0  2  0  0  0  0  0  0  0  0  0
   23.0755   44.8690   -5.7981 C   0  0  0  0  0  0  0  0  0  0  0  0
   24.2754   44.3415   -6.6276 C   0  0  2  0  0  0  0  0  0  0  0  0
   25.5418   45.1497   -6.2922 C   0  0  0  0  0  0  0  0  0  0  0  0
   23.9999   44.3810   -8.1504 C   0  0  0  0  0  0  0  0  0  0  0  0
   24.9345   43.4774   -8.9862 C   0  0  0  0  0  0  0  0  0  0  0  0
   24.4190   42.0362   -9.1395 C   0  0  0  0  0  0  0  0  0  0  0  0
   23.4024   41.8968  -10.2848 C   0  0  0  0  0  0  0  0  0  0  0  0
   22.5794   40.6043  -10.1923 C   0  0  0  0  0  0  0  0  0  0  0  0
   21.5407   40.4105  -11.3168 C   0  0  0  0  0  0  0  0  0  0  0  0
   20.5342   41.5600  -11.4941 C   0  0  0  0  0  0  0  0  0  0  0  0
   19.8524   41.9247  -10.2515 N   0  0  0  0  0  0  0  0  0  0  0  0
   20.0277   43.2064   -9.7002 C   0  0  0  0  0  0  0  0  0  0  0  0
   19.7984   43.4598   -8.3293 C   0  0  0  0  0  0  0  0  0  0  0  0
   20.0209   44.7603   -7.8120 C   0  0  0  0  0  0  0  0  0  0  0  0
   20.4346   45.7856   -8.6871 C   0  0  0  0  0  0  0  0  0  0  0  0
   20.6412   45.4867  -10.0470 C   0  0  0  0  0  0  0  0  0  0  0  0
   21.1028   46.5234  -11.0482 C   0  0  0  0  0  0  0  0  0  0  0  0
   20.4295   44.2309  -10.4898 N   0  3  0  0  0  0  0  0  0  0  0  0
   19.7883   45.0814   -6.3651 C   0  0  0  0  0  0  0  0  0  0  0  0
   18.8356   45.7801   -6.0340 O   0  0  0  0  0  0  0  0  0  0  0  0
   20.6524   44.6229   -5.4451 N   0  0  0  0  0  0  0  0  0  0  0  0
   18.5464   39.3254   -7.2405 C   0  0  0  0  0  0  0  0  0  0  0  0
   22.1333   43.5353   -3.4895 H   0  0  0  0  0  0  0  0  0  0  0  0
   21.8323   43.2683   -6.5250 H   0  0  0  0  0  0  0  0  0  0  0  0
   24.4706   43.3090   -6.3450 H   0  0  0  0  0  0  0  0  0  0  0  0
   16.2952   36.8245   -8.4340 H   0  0  0  0  0  0  0  0  0  0  0  0
   16.8755   36.9028  -10.0877 H   0  0  0  0  0  0  0  0  0  0  0  0
   15.2585   37.4736   -9.6927 H   0  0  0  0  0  0  0  0  0  0  0  0
   16.2031   39.2855   -8.3040 H   0  0  0  0  0  0  0  0  0  0  0  0
   17.0730   40.7494  -10.0936 H   0  0  0  0  0  0  0  0  0  0  0  0
   15.7273   39.7841  -10.6839 H   0  0  0  0  0  0  0  0  0  0  0  0
   17.3760   39.3526  -11.1273 H   0  0  0  0  0  0  0  0  0  0  0  0
   19.1041   37.8003  -10.2513 H   0  0  0  0  0  0  0  0  0  0  0  0
   21.4121   37.7366   -9.3403 H   0  0  0  0  0  0  0  0  0  0  0  0
   21.9050   38.6828   -7.1093 H   0  0  0  0  0  0  0  0  0  0  0  0
   19.3095   39.7473   -4.6817 H   0  0  0  0  0  0  0  0  0  0  0  0
   21.0221   39.3514   -4.9175 H   0  0  0  0  0  0  0  0  0  0  0  0
   21.2165   41.4024   -6.1167 H   0  0  0  0  0  0  0  0  0  0  0  0
   19.9912   42.4794   -3.7979 H   0  0  0  0  0  0  0  0  0  0  0  0
   21.1231   41.2111   -3.4249 H   0  0  0  0  0  0  0  0  0  0  0  0
   23.9610   42.7297   -4.3429 H   0  0  0  0  0  0  0  0  0  0  0  0
   22.7281   45.7888   -6.2710 H   0  0  0  0  0  0  0  0  0  0  0  0
   23.4160   45.1737   -4.8068 H   0  0  0  0  0  0  0  0  0  0  0  0
   25.4136   46.2069   -6.5273 H   0  0  0  0  0  0  0  0  0  0  0  0
   26.4138   44.7946   -6.8399 H   0  0  0  0  0  0  0  0  0  0  0  0
   25.7883   45.0749   -5.2362 H   0  0  0  0  0  0  0  0  0  0  0  0
   22.9666   44.1097   -8.3591 H   0  0  0  0  0  0  0  0  0  0  0  0
   24.0962   45.4104   -8.4961 H   0  0  0  0  0  0  0  0  0  0  0  0
   25.0694   43.9116   -9.9775 H   0  0  0  0  0  0  0  0  0  0  0  0
   25.9307   43.4553   -8.5468 H   0  0  0  0  0  0  0  0  0  0  0  0
   25.2576   41.3668   -9.3388 H   0  0  0  0  0  0  0  0  0  0  0  0
   23.9885   41.7018   -8.1954 H   0  0  0  0  0  0  0  0  0  0  0  0
   22.7361   42.7555  -10.2713 H   0  0  0  0  0  0  0  0  0  0  0  0
   23.9259   41.9389  -11.2400 H   0  0  0  0  0  0  0  0  0  0  0  0
   23.2586   39.7510  -10.1944 H   0  0  0  0  0  0  0  0  0  0  0  0
   22.0755   40.5830   -9.2267 H   0  0  0  0  0  0  0  0  0  0  0  0
   22.0599   40.2605  -12.2638 H   0  0  0  0  0  0  0  0  0  0  0  0
   20.9955   39.4834  -11.1469 H   0  0  0  0  0  0  0  0  0  0  0  0
   21.0557   42.3998  -11.9496 H   0  0  0  0  0  0  0  0  0  0  0  0
   19.7726   41.2580  -12.2142 H   0  0  0  0  0  0  0  0  0  0  0  0
   19.5868   41.1663   -9.6368 H   0  0  0  0  0  0  0  0  0  0  0  0
   19.4440   42.6689   -7.6883 H   0  0  0  0  0  0  0  0  0  0  0  0
   20.5978   46.7879   -8.3159 H   0  0  0  0  0  0  0  0  0  0  0  0
   21.2365   47.4970  -10.5750 H   0  0  0  0  0  0  0  0  0  0  0  0
   20.3712   46.6326  -11.8497 H   0  0  0  0  0  0  0  0  0  0  0  0
   22.0560   46.2277  -11.4873 H   0  0  0  0  0  0  0  0  0  0  0  0
   20.4606   44.9059   -4.4926 H   0  0  0  0  0  0  0  0  0  0  0  0
   17.7468   39.7493   -6.6493 H   0  0  0  0  0  0  0  0  0  0  0  0
   19.6172   41.7435   -5.7767 H   0  0  0  0  0  0  0  0  0  0  0  0
   20.5895   44.0443  -11.4791 H   0  0  0  0  0  0  0  0  0  0  0  0
  1  2  1  0  0  0  0
  1 40  1  0  0  0  0
  1 41  1  0  0  0  0
  1 42  1  0  0  0  0
  2  3  1  0  0  0  0
  2  4  1  0  0  0  0
  2 43  1  0  0  0  0
  3 44  1  0  0  0  0
  3 45  1  0  0  0  0
  3 46  1  0  0  0  0
  4 36  1  0  0  0  0
  4  5  2  0  0  0  0
  5  6  1  0  0  0  0
  5 47  1  0  0  0  0
  6  7  2  0  0  0  0
  6 48  1  0  0  0  0
  7  8  1  0  0  0  0
  7 49  1  0  0  0  0
  8  9  1  0  0  0  0
  8 36  2  0  0  0  0
  9 10  1  0  0  0  0
  9 50  1  0  0  0  0
  9 51  1  0  0  0  0
 10 11  1  0  0  0  0
 10 52  1  0  0  0  0
 10 83  1  0  0  0  0
 11 12  1  0  0  0  0
 11 53  1  0  0  0  0
 11 54  1  0  0  0  0
 12 37  1  1  0  0  0
 12 13  1  0  0  0  0
 12 14  1  0  0  0  0
 13 55  1  0  0  0  0
 14 38  1  6  0  0  0
 14 35  1  0  0  0  0
 14 15  1  0  0  0  0
 15 16  1  0  0  0  0
 15 56  1  0  0  0  0
 15 57  1  0  0  0  0
 16 39  1  1  0  0  0
 16 17  1  0  0  0  0
 16 18  1  0  0  0  0
 17 58  1  0  0  0  0
 17 59  1  0  0  0  0
 17 60  1  0  0  0  0
 18 19  1  0  0  0  0
 18 61  1  0  0  0  0
 18 62  1  0  0  0  0
 19 20  1  0  0  0  0
 19 63  1  0  0  0  0
 19 64  1  0  0  0  0
 20 21  1  0  0  0  0
 20 65  1  0  0  0  0
 20 66  1  0  0  0  0
 21 22  1  0  0  0  0
 21 67  1  0  0  0  0
 21 68  1  0  0  0  0
 22 23  1  0  0  0  0
 22 69  1  0  0  0  0
 22 70  1  0  0  0  0
 23 24  1  0  0  0  0
 23 71  1  0  0  0  0
 23 72  1  0  0  0  0
 24 25  1  0  0  0  0
 24 73  1  0  0  0  0
 24 74  1  0  0  0  0
 25 26  1  0  0  0  0
 25 75  1  0  0  0  0
 26 32  1  0  0  0  0
 26 27  2  0  0  0  0
 27 28  1  0  0  0  0
 27 76  1  0  0  0  0
 28 29  2  0  0  0  0
 28 33  1  0  0  0  0
 29 30  1  0  0  0  0
 29 77  1  0  0  0  0
 30 31  1  0  0  0  0
 30 32  2  0  0  0  0
 31 78  1  0  0  0  0
 31 79  1  0  0  0  0
 31 80  1  0  0  0  0
 32 84  1  0  0  0  0
 33 34  2  0  0  0  0
 33 35  1  0  0  0  0
 35 81  1  0  0  0  0
 36 82  1  0  0  0  0
M  CHG  2  10   1  32   1
M  END
>  <s_m_source_file>
BACE_41.smi

>  <i_m_source_file_index>
1

>  <i_lp_mmshare_version>
42013

>  <i_f3d_flags>
0

>  <s_epik_input>
W0NIM11bQ0hdKFtDSDNdKWMxW2NIXVtjSF1bY0hdYyhbY0hdMSlbQ0gyXVtOSF1bQ0gyXVtDQEBIXShbT0hdKVtDQEBIXShbTkhdQyg9TyljKFtjSF1jMjMpW2NIXWMobjMpW0NIM10pW0NIMl1bQ0BIXShbQ0gzXSlbQ0gyXVtDSDJdW0NIMl1bQ0gyXVtDSDJdW0NIMl1bQ0gyXVtOSF0y

>  <s_epik_cmdline>
J2VwaWtfcHl0aG9uJywgJy1waCcsICc3LjAnLCAnLXRuJywgJzgnLCAnLW1hJywgJzIwMCcsICctaW1hZScsICc8aW5maWxlLm1hZT4nLCAnLW9tYWUnLCAnPG91dGZpbGUubWFlPic=

>  <r_lp_tautomer_probability>
0.999994

>  <r_epik_Ionization_Penalty>
2.3305

>  <r_epik_Ionization_Penalty_Charging>
2.3304

>  <r_epik_Ionization_Penalty_Neutral>
0.0000

>  <r_epik_State_Penalty>
2.4157

>  <r_epik_Charging_Adjusted_Penalty>
4.74611

>  <i_epik_Tot_Q>
2

>  <i_epik_Tot_abs_Q>
2

>  <s_lp_Force_Field>
OPLS_2005

>  <r_lp_Energy>
39.3323

>  <b_lp_Chiralities_Consistent>
1

>  <s_lp_Variant>
BACE_41.smi:1-3

>  <chiral flag>
1

>  <version>
0

>  <s_i_glide_gridfile>
second_dock_grid_2

>  <i_i_glide_lignum>
75

>  <i_i_glide_rotatable_bonds>
7

>  <r_i_docking_score>
-1.66225

>  <r_i_glide_ligand_efficiency>
-0.0461737

>  <r_i_glide_ligand_efficiency_sa>
-0.152462

>  <r_i_glide_ligand_efficiency_ln>
-0.362659

>  <r_glide_XP_GScore>
-4.07795

>  <r_i_glide_gscore>
-4.07795

>  <r_i_glide_evdw>
-34.2237

>  <r_i_glide_ecoul>
-12.151

>  <r_i_glide_energy>
-46.3747

>  <r_i_glide_einternal>
3.50866

>  <r_i_glide_emodel>
-66.3937

>  <r_glide_XP_HBond>
0

>  <i_i_glide_confnum>
1

>  <i_i_glide_posenum>
1

>  <r_i_glide_eff_state_penalty>
2.4157

>  <i_glide_XP_PoseRank>
1

$$$$
