BACE_118.smi:1
 OpenBabel09291822493D
Structure written by MMmdl.
 78 81  0  0  1  0  0  0  0  0999 V2000
   18.3535   49.4711   -9.9185 C   0  0  0  0  0  0  0  0  0  0  0  0
   17.3919   49.1409   -8.7689 C   0  0  0  0  0  0  0  0  0  0  0  0
   17.0614   50.3959   -7.9459 C   0  0  0  0  0  0  0  0  0  0  0  0
   17.9288   47.9888   -7.9272 C   0  0  0  0  0  0  0  0  0  0  0  0
   18.7295   48.2128   -6.7857 C   0  0  0  0  0  0  0  0  0  0  0  0
   19.2603   47.1241   -6.0728 C   0  0  0  0  0  0  0  0  0  0  0  0
   18.9918   45.8059   -6.4783 C   0  0  0  0  0  0  0  0  0  0  0  0
   18.2002   45.5688   -7.6187 C   0  0  0  0  0  0  0  0  0  0  0  0
   18.0579   44.1504   -8.1396 C   0  0  0  0  0  0  0  0  0  0  0  0
   16.7343   43.5338   -8.0401 N   0  0  0  0  0  0  0  0  0  0  0  0
   15.6614   44.0746   -8.8751 C   0  0  0  0  0  0  0  0  0  0  0  0
   14.8024   42.9261   -9.4522 C   0  0  1  0  0  0  0  0  0  0  0  0
   13.5061   43.4391   -9.6970 O   0  0  0  0  0  0  0  0  0  0  0  0
   15.3520   42.3113  -10.7808 C   0  0  2  0  0  0  0  0  0  0  0  0
   14.8164   40.8745  -11.0172 C   0  0  0  0  0  0  0  0  0  0  0  0
   15.4642   39.8281  -10.1314 C   0  0  0  0  0  0  0  0  0  0  0  0
   14.7989   39.3559   -8.9837 C   0  0  0  0  0  0  0  0  0  0  0  0
   15.4421   38.4394   -8.1355 C   0  0  0  0  0  0  0  0  0  0  0  0
   16.7407   37.9842   -8.4382 C   0  0  0  0  0  0  0  0  0  0  0  0
   17.4085   38.4502   -9.5844 C   0  0  0  0  0  0  0  0  0  0  0  0
   18.8354   38.0301   -9.8691 C   0  0  0  0  0  0  0  0  0  0  0  0
   19.7999   38.5061   -8.7679 C   0  0  0  0  0  0  0  0  0  0  0  0
   21.2807   38.4622   -9.1764 C   0  0  0  0  0  0  0  0  0  0  0  0
   21.6981   39.5902  -10.1403 C   0  0  0  0  0  0  0  0  0  0  0  0
   21.6799   40.9129   -9.5174 N   0  0  0  0  0  0  0  0  0  0  0  0
   22.7736   41.2556   -8.6141 C   0  0  0  0  0  0  0  0  0  0  0  0
   21.0699   41.9599  -10.2405 C   0  0  0  0  0  0  0  0  0  0  0  0
   21.7727   43.1502  -10.5440 C   0  0  0  0  0  0  0  0  0  0  0  0
   21.1442   44.1991  -11.2398 C   0  0  0  0  0  0  0  0  0  0  0  0
   19.8011   44.0764  -11.6386 C   0  0  0  0  0  0  0  0  0  0  0  0
   19.0792   42.9028  -11.3443 C   0  0  0  0  0  0  0  0  0  0  0  0
   19.7220   41.8444  -10.6583 C   0  0  0  0  0  0  0  0  0  0  0  0
   17.6369   42.8161  -11.7441 C   0  0  0  0  0  0  0  0  0  0  0  0
   17.2593   43.2483  -12.8343 O   0  0  0  0  0  0  0  0  0  0  0  0
   16.8192   42.3353  -10.7951 N   0  0  0  0  0  0  0  0  0  0  0  0
   16.7548   39.3516  -10.4399 C   0  0  0  0  0  0  0  0  0  0  0  0
   17.6700   46.6627   -8.3353 C   0  0  0  0  0  0  0  0  0  0  0  0
   14.6998   42.1560   -8.6854 H   0  0  0  0  0  0  0  0  0  0  0  0
   15.0014   42.9454  -11.5970 H   0  0  0  0  0  0  0  0  0  0  0  0
   18.5194   48.6020  -10.5568 H   0  0  0  0  0  0  0  0  0  0  0  0
   19.3240   49.7950   -9.5407 H   0  0  0  0  0  0  0  0  0  0  0  0
   17.9584   50.2688  -10.5485 H   0  0  0  0  0  0  0  0  0  0  0  0
   16.4598   48.7952   -9.2158 H   0  0  0  0  0  0  0  0  0  0  0  0
   16.4250   50.1483   -7.0955 H   0  0  0  0  0  0  0  0  0  0  0  0
   16.5343   51.1328   -8.5535 H   0  0  0  0  0  0  0  0  0  0  0  0
   17.9658   50.8738   -7.5683 H   0  0  0  0  0  0  0  0  0  0  0  0
   18.9755   49.2131   -6.4638 H   0  0  0  0  0  0  0  0  0  0  0  0
   19.9156   47.3043   -5.2399 H   0  0  0  0  0  0  0  0  0  0  0  0
   19.4357   44.9799   -5.9422 H   0  0  0  0  0  0  0  0  0  0  0  0
   18.3755   44.1676   -9.1788 H   0  0  0  0  0  0  0  0  0  0  0  0
   18.7829   43.5153   -7.6283 H   0  0  0  0  0  0  0  0  0  0  0  0
   16.4301   43.4074   -7.0738 H   0  0  0  0  0  0  0  0  0  0  0  0
   15.0512   44.7466   -8.2699 H   0  0  0  0  0  0  0  0  0  0  0  0
   16.0528   44.6668   -9.7027 H   0  0  0  0  0  0  0  0  0  0  0  0
   12.8894   42.7304   -9.5618 H   0  0  0  0  0  0  0  0  0  0  0  0
   13.7343   40.8479  -10.8846 H   0  0  0  0  0  0  0  0  0  0  0  0
   15.0028   40.5549  -12.0403 H   0  0  0  0  0  0  0  0  0  0  0  0
   13.8067   39.7050   -8.7372 H   0  0  0  0  0  0  0  0  0  0  0  0
   14.9449   38.0939   -7.2391 H   0  0  0  0  0  0  0  0  0  0  0  0
   17.2366   37.3018   -7.7607 H   0  0  0  0  0  0  0  0  0  0  0  0
   18.8637   36.9460   -9.9586 H   0  0  0  0  0  0  0  0  0  0  0  0
   19.1366   38.4243  -10.8397 H   0  0  0  0  0  0  0  0  0  0  0  0
   19.5478   39.5243   -8.4674 H   0  0  0  0  0  0  0  0  0  0  0  0
   19.6482   37.8925   -7.8789 H   0  0  0  0  0  0  0  0  0  0  0  0
   21.9000   38.4992   -8.2798 H   0  0  0  0  0  0  0  0  0  0  0  0
   21.4953   37.4976   -9.6369 H   0  0  0  0  0  0  0  0  0  0  0  0
   22.7249   39.4015  -10.4531 H   0  0  0  0  0  0  0  0  0  0  0  0
   21.0983   39.5640  -11.0502 H   0  0  0  0  0  0  0  0  0  0  0  0
   22.5583   42.1726   -8.0655 H   0  0  0  0  0  0  0  0  0  0  0  0
   23.7028   41.3904   -9.1685 H   0  0  0  0  0  0  0  0  0  0  0  0
   22.9322   40.4652   -7.8808 H   0  0  0  0  0  0  0  0  0  0  0  0
   22.8053   43.2738  -10.2545 H   0  0  0  0  0  0  0  0  0  0  0  0
   21.6939   45.1015  -11.4667 H   0  0  0  0  0  0  0  0  0  0  0  0
   19.3240   44.8939  -12.1609 H   0  0  0  0  0  0  0  0  0  0  0  0
   19.1718   40.9469  -10.4209 H   0  0  0  0  0  0  0  0  0  0  0  0
   17.2497   42.0751   -9.9167 H   0  0  0  0  0  0  0  0  0  0  0  0
   17.2637   39.7165  -11.3198 H   0  0  0  0  0  0  0  0  0  0  0  0
   17.1039   46.4910   -9.2367 H   0  0  0  0  0  0  0  0  0  0  0  0
  1  2  1  0  0  0  0
  1 40  1  0  0  0  0
  1 41  1  0  0  0  0
  1 42  1  0  0  0  0
  2  3  1  0  0  0  0
  2  4  1  0  0  0  0
  2 43  1  0  0  0  0
  3 44  1  0  0  0  0
  3 45  1  0  0  0  0
  3 46  1  0  0  0  0
  4 37  1  0  0  0  0
  4  5  2  0  0  0  0
  5  6  1  0  0  0  0
  5 47  1  0  0  0  0
  6  7  2  0  0  0  0
  6 48  1  0  0  0  0
  7  8  1  0  0  0  0
  7 49  1  0  0  0  0
  8  9  1  0  0  0  0
  8 37  2  0  0  0  0
  9 10  1  0  0  0  0
  9 50  1  0  0  0  0
  9 51  1  0  0  0  0
 10 11  1  0  0  0  0
 10 52  1  0  0  0  0
 11 12  1  0  0  0  0
 11 53  1  0  0  0  0
 11 54  1  0  0  0  0
 12 38  1  1  0  0  0
 12 13  1  0  0  0  0
 12 14  1  0  0  0  0
 13 55  1  0  0  0  0
 14 39  1  6  0  0  0
 14 35  1  0  0  0  0
 14 15  1  0  0  0  0
 15 16  1  0  0  0  0
 15 56  1  0  0  0  0
 15 57  1  0  0  0  0
 16 36  1  0  0  0  0
 16 17  2  0  0  0  0
 17 18  1  0  0  0  0
 17 58  1  0  0  0  0
 18 19  2  0  0  0  0
 18 59  1  0  0  0  0
 19 20  1  0  0  0  0
 19 60  1  0  0  0  0
 20 21  1  0  0  0  0
 20 36  2  0  0  0  0
 21 22  1  0  0  0  0
 21 61  1  0  0  0  0
 21 62  1  0  0  0  0
 22 23  1  0  0  0  0
 22 63  1  0  0  0  0
 22 64  1  0  0  0  0
 23 24  1  0  0  0  0
 23 65  1  0  0  0  0
 23 66  1  0  0  0  0
 24 25  1  0  0  0  0
 24 67  1  0  0  0  0
 24 68  1  0  0  0  0
 25 26  1  0  0  0  0
 25 27  1  0  0  0  0
 26 69  1  0  0  0  0
 26 70  1  0  0  0  0
 26 71  1  0  0  0  0
 27 32  1  0  0  0  0
 27 28  2  0  0  0  0
 28 29  1  0  0  0  0
 28 72  1  0  0  0  0
 29 30  2  0  0  0  0
 29 73  1  0  0  0  0
 30 31  1  0  0  0  0
 30 74  1  0  0  0  0
 31 32  2  0  0  0  0
 31 33  1  0  0  0  0
 32 75  1  0  0  0  0
 33 34  2  0  0  0  0
 33 35  1  0  0  0  0
 35 76  1  0  0  0  0
 36 77  1  0  0  0  0
 37 78  1  0  0  0  0
M  END
>  <s_m_source_file>
BACE_118.smi

>  <i_m_source_file_index>
1

>  <i_lp_mmshare_version>
42013

>  <i_f3d_flags>
0

>  <s_epik_input>
W0NIM11bQ0hdKFtDSDNdKWMxW2NIXVtjSF1bY0hdYyhbY0hdMSlbQ0gyXVtOSF1bQ0gyXVtDQEBIXShbT0hdKVtDQEhdKFtDSDJdMilbTkhdQyg9TyljKFtjSF0zKVtjSF1bY0hdW2NIXWMzTihbQ0gzXSlbQ0gyXVtDSDJdW0NIMl1bQ0gyXWMoW2NIXTQpW2NIXVtjSF1bY0hdYzI0

>  <s_epik_cmdline>
J2VwaWtfcHl0aG9uJywgJy1waCcsICc3LjAnLCAnLXRuJywgJzgnLCAnLW1hJywgJzIwMCcsICctaW1hZScsICc8aW5maWxlLm1hZT4nLCAnLW9tYWUnLCAnPG91dGZpbGUubWFlPic=

>  <r_epik_Ionization_Penalty>
2.0454

>  <r_epik_Ionization_Penalty_Charging>
0.0000

>  <r_epik_Ionization_Penalty_Neutral>
2.0454

>  <r_epik_State_Penalty>
2.1759

>  <r_epik_Charging_Adjusted_Penalty>
2.17586

>  <i_epik_Tot_Q>
0

>  <i_epik_Tot_abs_Q>
0

>  <s_lp_Force_Field>
OPLS_2005

>  <r_lp_Energy>
39.2632

>  <b_lp_Chiralities_Consistent>
1

>  <s_lp_Variant>
BACE_118.smi:1-2

>  <chiral flag>
1

>  <version>
0

>  <s_i_glide_gridfile>
second_dock_grid_2

>  <i_i_glide_lignum>
241

>  <i_i_glide_rotatable_bonds>
7

>  <r_i_docking_score>
-1.18974

>  <r_i_glide_ligand_efficiency>
-0.0321551

>  <r_i_glide_ligand_efficiency_sa>
-0.107148

>  <r_i_glide_ligand_efficiency_ln>
-0.258027

>  <r_glide_XP_GScore>
-3.36564

>  <r_i_glide_gscore>
-3.36564

>  <r_i_glide_evdw>
-40.4268

>  <r_i_glide_ecoul>
-9.93417

>  <r_i_glide_energy>
-50.361

>  <r_i_glide_einternal>
4.10056

>  <r_i_glide_emodel>
-69.4198

>  <r_glide_XP_HBond>
0

>  <i_i_glide_confnum>
1

>  <i_i_glide_posenum>
5

>  <r_i_glide_eff_state_penalty>
2.1759

>  <i_glide_XP_PoseRank>
2

$$$$
