BACE_37.smi:1
 OpenBabel09291822493D
Structure written by MMmdl.
 81 82  0  0  1  0  0  0  0  0999 V2000
   25.1522   44.0573   -6.3059 C   0  0  0  0  0  0  0  0  0  0  0  0
   23.7227   43.5163   -6.4658 C   0  0  2  0  0  0  0  0  0  0  0  0
   23.3504   43.4010   -7.9604 C   0  0  0  0  0  0  0  0  0  0  0  0
   23.9610   42.1808   -8.6768 C   0  0  0  0  0  0  0  0  0  0  0  0
   23.0692   41.6717   -9.8228 C   0  0  0  0  0  0  0  0  0  0  0  0
   21.8577   40.8640   -9.3119 C   0  0  0  0  0  0  0  0  0  0  0  0
   20.7794   40.5844  -10.3756 C   0  0  0  0  0  0  0  0  0  0  0  0
   20.0393   41.8278  -10.9094 C   0  0  0  0  0  0  0  0  0  0  0  0
   19.4656   42.6374   -9.8345 N   0  0  0  0  0  0  0  0  0  0  0  0
   19.8053   43.9054   -9.5495 C   0  0  0  0  0  0  0  0  0  0  0  0
   20.6341   44.5403  -10.2020 O   0  0  0  0  0  0  0  0  0  0  0  0
   19.1111   44.5452   -8.3372 C   0  0  0  0  0  0  0  0  0  0  0  0
   19.9687   45.6232   -7.6213 C   0  0  1  0  0  0  0  0  0  0  0  0
   19.8321   47.0110   -8.2815 C   0  0  0  0  0  0  0  0  0  0  0  0
   19.6548   45.6888   -6.1114 C   0  0  0  0  0  0  0  0  0  0  0  0
   18.7861   46.4590   -5.7061 O   0  0  0  0  0  0  0  0  0  0  0  0
   20.3531   44.9370   -5.2396 N   0  0  0  0  0  0  0  0  0  0  0  0
   21.2669   43.8308   -5.5315 C   0  0  1  0  0  0  0  0  0  0  0  0
   22.7145   44.3903   -5.6779 C   0  0  0  0  0  0  0  0  0  0  0  0
   21.1238   42.7284   -4.4435 C   0  0  2  0  0  0  0  0  0  0  0  0
   22.1029   42.9511   -3.4484 O   0  0  0  0  0  0  0  0  0  0  0  0
   21.3781   41.2911   -4.9557 C   0  0  0  0  0  0  0  0  0  0  0  0
   20.4727   40.9479   -6.0492 N   0  0  0  0  0  0  0  0  0  0  0  0
   20.6493   39.5839   -6.5332 C   0  0  0  0  0  0  0  0  0  0  0  0
   19.7757   39.2942   -7.7365 C   0  0  0  0  0  0  0  0  0  0  0  0
   20.3571   38.8232   -8.9292 C   0  0  0  0  0  0  0  0  0  0  0  0
   19.5453   38.5520  -10.0442 C   0  0  0  0  0  0  0  0  0  0  0  0
   18.1539   38.7488   -9.9675 C   0  0  0  0  0  0  0  0  0  0  0  0
   17.5472   39.2191   -8.7780 C   0  0  0  0  0  0  0  0  0  0  0  0
   18.3801   39.4867   -7.6620 C   0  0  0  0  0  0  0  0  0  0  0  0
   16.0205   39.4241   -8.7368 C   0  0  0  0  0  0  0  0  0  0  0  0
   15.2279   38.1278   -9.0208 C   0  0  0  0  0  0  0  0  0  0  0  0
   15.6081   40.4654   -9.7981 C   0  0  0  0  0  0  0  0  0  0  0  0
   15.6040   39.9280   -7.3392 C   0  0  0  0  0  0  0  0  0  0  0  0
   23.7225   42.5203   -6.0297 H   0  0  0  0  0  0  0  0  0  0  0  0
   21.0206   45.3604   -7.7170 H   0  0  0  0  0  0  0  0  0  0  0  0
   20.9261   43.3830   -6.4618 H   0  0  0  0  0  0  0  0  0  0  0  0
   20.1307   42.7878   -3.9955 H   0  0  0  0  0  0  0  0  0  0  0  0
   25.2438   45.0641   -6.7150 H   0  0  0  0  0  0  0  0  0  0  0  0
   25.8746   43.4228   -6.8198 H   0  0  0  0  0  0  0  0  0  0  0  0
   25.4430   44.0972   -5.2559 H   0  0  0  0  0  0  0  0  0  0  0  0
   22.2733   43.3419   -8.0609 H   0  0  0  0  0  0  0  0  0  0  0  0
   23.6170   44.3159   -8.4912 H   0  0  0  0  0  0  0  0  0  0  0  0
   24.9432   42.4532   -9.0638 H   0  0  0  0  0  0  0  0  0  0  0  0
   24.1304   41.3629   -7.9756 H   0  0  0  0  0  0  0  0  0  0  0  0
   22.7464   42.5224  -10.4227 H   0  0  0  0  0  0  0  0  0  0  0  0
   23.6567   41.0382  -10.4881 H   0  0  0  0  0  0  0  0  0  0  0  0
   22.2199   39.9115   -8.9233 H   0  0  0  0  0  0  0  0  0  0  0  0
   21.3934   41.3576   -8.4588 H   0  0  0  0  0  0  0  0  0  0  0  0
   21.2260   40.0452  -11.2118 H   0  0  0  0  0  0  0  0  0  0  0  0
   20.0436   39.9050   -9.9437 H   0  0  0  0  0  0  0  0  0  0  0  0
   20.7067   42.4137  -11.5421 H   0  0  0  0  0  0  0  0  0  0  0  0
   19.2239   41.5087  -11.5586 H   0  0  0  0  0  0  0  0  0  0  0  0
   18.7741   42.1910   -9.2498 H   0  0  0  0  0  0  0  0  0  0  0  0
   18.1633   44.9732   -8.6657 H   0  0  0  0  0  0  0  0  0  0  0  0
   18.8505   43.7456   -7.6411 H   0  0  0  0  0  0  0  0  0  0  0  0
   20.4040   47.7654   -7.7398 H   0  0  0  0  0  0  0  0  0  0  0  0
   18.7931   47.3407   -8.3123 H   0  0  0  0  0  0  0  0  0  0  0  0
   20.2029   47.0040   -9.3061 H   0  0  0  0  0  0  0  0  0  0  0  0
   20.1397   45.0751   -4.2622 H   0  0  0  0  0  0  0  0  0  0  0  0
   23.1077   44.5823   -4.6788 H   0  0  0  0  0  0  0  0  0  0  0  0
   22.6874   45.3692   -6.1578 H   0  0  0  0  0  0  0  0  0  0  0  0
   22.9459   43.0250   -3.8688 H   0  0  0  0  0  0  0  0  0  0  0  0
   22.3986   41.1940   -5.3252 H   0  0  0  0  0  0  0  0  0  0  0  0
   21.2830   40.5761   -4.1371 H   0  0  0  0  0  0  0  0  0  0  0  0
   19.5147   41.0724   -5.7388 H   0  0  0  0  0  0  0  0  0  0  0  0
   21.6936   39.4078   -6.7949 H   0  0  0  0  0  0  0  0  0  0  0  0
   20.4010   38.8710   -5.7457 H   0  0  0  0  0  0  0  0  0  0  0  0
   21.4246   38.6686   -8.9901 H   0  0  0  0  0  0  0  0  0  0  0  0
   19.9895   38.1918  -10.9602 H   0  0  0  0  0  0  0  0  0  0  0  0
   17.5534   38.5327  -10.8384 H   0  0  0  0  0  0  0  0  0  0  0  0
   17.9712   39.8437   -6.7298 H   0  0  0  0  0  0  0  0  0  0  0  0
   14.1527   38.3065   -8.9808 H   0  0  0  0  0  0  0  0  0  0  0  0
   15.4479   37.3512   -8.2871 H   0  0  0  0  0  0  0  0  0  0  0  0
   15.4464   37.7297  -10.0125 H   0  0  0  0  0  0  0  0  0  0  0  0
   15.8968   40.1430  -10.7994 H   0  0  0  0  0  0  0  0  0  0  0  0
   16.0686   41.4376   -9.6215 H   0  0  0  0  0  0  0  0  0  0  0  0
   14.5286   40.6205   -9.8030 H   0  0  0  0  0  0  0  0  0  0  0  0
   14.5233   40.0563   -7.2694 H   0  0  0  0  0  0  0  0  0  0  0  0
   16.0549   40.8906   -7.0975 H   0  0  0  0  0  0  0  0  0  0  0  0
   15.9006   39.2224   -6.5622 H   0  0  0  0  0  0  0  0  0  0  0  0
  1  2  1  0  0  0  0
  1 39  1  0  0  0  0
  1 40  1  0  0  0  0
  1 41  1  0  0  0  0
  2 35  1  1  0  0  0
  2 19  1  0  0  0  0
  2  3  1  0  0  0  0
  3  4  1  0  0  0  0
  3 42  1  0  0  0  0
  3 43  1  0  0  0  0
  4  5  1  0  0  0  0
  4 44  1  0  0  0  0
  4 45  1  0  0  0  0
  5  6  1  0  0  0  0
  5 46  1  0  0  0  0
  5 47  1  0  0  0  0
  6  7  1  0  0  0  0
  6 48  1  0  0  0  0
  6 49  1  0  0  0  0
  7  8  1  0  0  0  0
  7 50  1  0  0  0  0
  7 51  1  0  0  0  0
  8  9  1  0  0  0  0
  8 52  1  0  0  0  0
  8 53  1  0  0  0  0
  9 10  1  0  0  0  0
  9 54  1  0  0  0  0
 10 11  2  0  0  0  0
 10 12  1  0  0  0  0
 12 13  1  0  0  0  0
 12 55  1  0  0  0  0
 12 56  1  0  0  0  0
 13 36  1  6  0  0  0
 13 14  1  0  0  0  0
 13 15  1  0  0  0  0
 14 57  1  0  0  0  0
 14 58  1  0  0  0  0
 14 59  1  0  0  0  0
 15 16  2  0  0  0  0
 15 17  1  0  0  0  0
 17 18  1  0  0  0  0
 17 60  1  0  0  0  0
 18 37  1  6  0  0  0
 18 19  1  0  0  0  0
 18 20  1  0  0  0  0
 19 61  1  0  0  0  0
 19 62  1  0  0  0  0
 20 38  1  1  0  0  0
 20 21  1  0  0  0  0
 20 22  1  0  0  0  0
 21 63  1  0  0  0  0
 22 23  1  0  0  0  0
 22 64  1  0  0  0  0
 22 65  1  0  0  0  0
 23 24  1  0  0  0  0
 23 66  1  0  0  0  0
 24 25  1  0  0  0  0
 24 67  1  0  0  0  0
 24 68  1  0  0  0  0
 25 30  1  0  0  0  0
 25 26  2  0  0  0  0
 26 27  1  0  0  0  0
 26 69  1  0  0  0  0
 27 28  2  0  0  0  0
 27 70  1  0  0  0  0
 28 29  1  0  0  0  0
 28 71  1  0  0  0  0
 29 30  2  0  0  0  0
 29 31  1  0  0  0  0
 30 72  1  0  0  0  0
 31 32  1  0  0  0  0
 31 33  1  0  0  0  0
 31 34  1  0  0  0  0
 32 73  1  0  0  0  0
 32 74  1  0  0  0  0
 32 75  1  0  0  0  0
 33 76  1  0  0  0  0
 33 77  1  0  0  0  0
 33 78  1  0  0  0  0
 34 79  1  0  0  0  0
 34 80  1  0  0  0  0
 34 81  1  0  0  0  0
M  END
>  <s_m_source_file>
BACE_37.smi

>  <i_m_source_file_index>
1

>  <i_lp_mmshare_version>
42013

>  <i_f3d_flags>
0

>  <s_epik_input>
W0NIM11bQ0BASF0xW0NIMl1bQ0gyXVtDSDJdW0NIMl1bQ0gyXVtDSDJdW05IXUMoPU8pW0NIMl1bQ0BASF0oW0NIM10pQyg9TylbTkhdW0NAQEhdKFtDSDJdMSlbQ0BIXShbT0hdKVtDSDJdW05IXVtDSDJdYzJbY0hdW2NIXVtjSF1jKFtjSF0yKUMoW0NIM10pKFtDSDNdKVtDSDNd

>  <s_epik_cmdline>
J2VwaWtfcHl0aG9uJywgJy1waCcsICc3LjAnLCAnLXRuJywgJzgnLCAnLW1hJywgJzIwMCcsICctaW1hZScsICc8aW5maWxlLm1hZT4nLCAnLW9tYWUnLCAnPG91dGZpbGUubWFlPic=

>  <r_epik_Ionization_Penalty>
2.1070

>  <r_epik_Ionization_Penalty_Charging>
0.0000

>  <r_epik_Ionization_Penalty_Neutral>
2.1070

>  <r_epik_State_Penalty>
2.2436

>  <r_epik_Charging_Adjusted_Penalty>
2.24357

>  <i_epik_Tot_Q>
0

>  <i_epik_Tot_abs_Q>
0

>  <s_lp_Force_Field>
OPLS_2005

>  <r_lp_Energy>
34.0809

>  <b_lp_Chiralities_Consistent>
1

>  <s_lp_Variant>
BACE_37.smi:1-2

>  <chiral flag>
1

>  <version>
0

>  <s_i_glide_gridfile>
second_dock_grid_2

>  <i_i_glide_lignum>
66

>  <i_i_glide_rotatable_bonds>
7

>  <r_i_docking_score>
-2.30511

>  <r_i_glide_ligand_efficiency>
-0.0677975

>  <r_i_glide_ligand_efficiency_sa>
-0.219638

>  <r_i_glide_ligand_efficiency_ln>
-0.509265

>  <r_glide_XP_GScore>
-4.54871

>  <r_i_glide_gscore>
-4.54871

>  <r_i_glide_evdw>
-35.2983

>  <r_i_glide_ecoul>
-9.40341

>  <r_i_glide_energy>
-44.7017

>  <r_i_glide_einternal>
5.69172

>  <r_i_glide_emodel>
-62.5126

>  <r_glide_XP_HBond>
-1.82775

>  <i_i_glide_confnum>
1

>  <i_i_glide_posenum>
1

>  <r_i_glide_eff_state_penalty>
2.2436

>  <i_glide_XP_PoseRank>
1

$$$$
