BACE_67.smi:1
 OpenBabel09291822493D
Structure written by MMmdl.
 85 87  0  0  1  0  0  0  0  0999 V2000
   22.4569   39.4897   -6.3646 C   0  0  0  0  0  0  0  0  0  0  0  0
   21.6464   40.2611   -7.4116 C   0  0  2  0  0  0  0  0  0  0  0  0
   20.1269   40.0309   -7.2488 C   0  0  0  0  0  0  0  0  0  0  0  0
   19.6562   38.5563   -7.2741 C   0  0  0  0  0  0  0  0  0  0  0  0
   18.1484   38.3705   -7.2024 C   0  0  0  0  0  0  0  0  0  0  0  0
   17.2436   39.3583   -7.1184 C   0  0  0  0  0  0  0  0  0  0  0  0
   15.7412   39.1969   -7.1381 C   0  0  0  0  0  0  0  0  0  0  0  0
   15.1167   39.9513   -8.3198 C   0  0  0  0  0  0  0  0  0  0  0  0
   15.2382   39.2088   -9.6619 C   0  0  0  0  0  0  0  0  0  0  0  0
   16.6194   38.9464  -10.0465 N   0  0  0  0  0  0  0  0  0  0  0  0
   17.4471   39.9092  -10.6410 C   0  0  0  0  0  0  0  0  0  0  0  0
   18.7627   39.5342  -10.9937 C   0  0  0  0  0  0  0  0  0  0  0  0
   19.6212   40.4485  -11.6382 C   0  0  0  0  0  0  0  0  0  0  0  0
   19.1674   41.7527  -11.9126 C   0  0  0  0  0  0  0  0  0  0  0  0
   17.8670   42.1426  -11.5483 C   0  0  0  0  0  0  0  0  0  0  0  0
   17.4013   43.5457  -11.8528 C   0  0  0  0  0  0  0  0  0  0  0  0
   17.2601   43.7560  -13.2399 O   0  0  0  0  0  0  0  0  0  0  0  0
   17.0064   41.2222  -10.9188 C   0  0  0  0  0  0  0  0  0  0  0  0
   21.0215   40.0664  -12.0021 C   0  0  0  0  0  0  0  0  0  0  0  0
   21.2597   39.4072  -13.0097 O   0  0  0  0  0  0  0  0  0  0  0  0
   22.0066   40.5228  -11.2160 N   0  0  0  0  0  0  0  0  0  0  0  0
   21.8742   41.0948   -9.8744 C   0  0  1  0  0  0  0  0  0  0  0  0
   22.1664   39.9767   -8.8404 C   0  0  0  0  0  0  0  0  0  0  0  0
   22.7630   42.3618   -9.7295 C   0  0  2  0  0  0  0  0  0  0  0  0
   22.0420   43.4574  -10.2535 O   0  0  0  0  0  0  0  0  0  0  0  0
   24.1508   42.3379  -10.4042 C   0  0  0  0  0  0  0  0  0  0  0  0
   25.0626   41.3832   -9.7354 N   0  3  0  0  0  0  0  0  0  0  0  0
   26.3550   41.1327  -10.4023 C   0  0  0  0  0  0  0  0  0  0  0  0
   27.0804   42.3952  -10.7618 C   0  0  0  0  0  0  0  0  0  0  0  0
   27.4303   42.8610  -12.0546 C   0  0  0  0  0  0  0  0  0  0  0  0
   27.9792   44.0874  -11.8184 C   0  0  0  0  0  0  0  0  0  0  0  0
   28.4914   45.1522  -12.7342 C   0  0  0  0  0  0  0  0  0  0  0  0
   27.4898   46.2956  -13.0721 C   0  0  0  0  0  0  0  0  0  0  0  0
   27.7669   46.8009  -14.5025 C   0  0  0  0  0  0  0  0  0  0  0  0
   27.6924   47.4605  -12.0837 C   0  0  0  0  0  0  0  0  0  0  0  0
   26.0155   45.8332  -13.0000 C   0  0  0  0  0  0  0  0  0  0  0  0
   27.9829   44.3495  -10.4861 O   0  0  0  0  0  0  0  0  0  0  0  0
   27.4175   43.2575   -9.8172 N   0  0  0  0  0  0  0  0  0  0  0  0
   21.8185   41.3152   -7.1967 H   0  0  0  0  0  0  0  0  0  0  0  0
   20.8489   41.4108   -9.6899 H   0  0  0  0  0  0  0  0  0  0  0  0
   22.8992   42.5941   -8.6727 H   0  0  0  0  0  0  0  0  0  0  0  0
   22.3727   38.4141   -6.5074 H   0  0  0  0  0  0  0  0  0  0  0  0
   22.1261   39.7209   -5.3512 H   0  0  0  0  0  0  0  0  0  0  0  0
   23.5090   39.7499   -6.4408 H   0  0  0  0  0  0  0  0  0  0  0  0
   19.8141   40.4720   -6.3009 H   0  0  0  0  0  0  0  0  0  0  0  0
   19.6027   40.5916   -8.0233 H   0  0  0  0  0  0  0  0  0  0  0  0
   19.9922   38.0643   -8.1862 H   0  0  0  0  0  0  0  0  0  0  0  0
   20.0939   38.0062   -6.4428 H   0  0  0  0  0  0  0  0  0  0  0  0
   17.7922   37.3510   -7.2522 H   0  0  0  0  0  0  0  0  0  0  0  0
   17.5656   40.3868   -7.0689 H   0  0  0  0  0  0  0  0  0  0  0  0
   15.4581   38.1502   -7.1881 H   0  0  0  0  0  0  0  0  0  0  0  0
   15.3503   39.5854   -6.1954 H   0  0  0  0  0  0  0  0  0  0  0  0
   14.0600   40.0827   -8.1069 H   0  0  0  0  0  0  0  0  0  0  0  0
   15.5340   40.9573   -8.3831 H   0  0  0  0  0  0  0  0  0  0  0  0
   14.7277   38.2485   -9.5833 H   0  0  0  0  0  0  0  0  0  0  0  0
   14.7208   39.7521  -10.4512 H   0  0  0  0  0  0  0  0  0  0  0  0
   17.0194   38.0633   -9.7658 H   0  0  0  0  0  0  0  0  0  0  0  0
   19.1078   38.5322  -10.7828 H   0  0  0  0  0  0  0  0  0  0  0  0
   19.8178   42.4618  -12.4018 H   0  0  0  0  0  0  0  0  0  0  0  0
   16.4503   43.7471  -11.3566 H   0  0  0  0  0  0  0  0  0  0  0  0
   18.1271   44.2545  -11.4526 H   0  0  0  0  0  0  0  0  0  0  0  0
   17.0043   44.6559  -13.3780 H   0  0  0  0  0  0  0  0  0  0  0  0
   16.0083   41.5354  -10.6546 H   0  0  0  0  0  0  0  0  0  0  0  0
   22.9397   40.3377  -11.5618 H   0  0  0  0  0  0  0  0  0  0  0  0
   23.2351   39.7776   -8.8077 H   0  0  0  0  0  0  0  0  0  0  0  0
   21.7335   39.0381   -9.1857 H   0  0  0  0  0  0  0  0  0  0  0  0
   21.8159   43.2665  -11.1520 H   0  0  0  0  0  0  0  0  0  0  0  0
   24.0806   42.1451  -11.4746 H   0  0  0  0  0  0  0  0  0  0  0  0
   24.5878   43.3351  -10.3208 H   0  0  0  0  0  0  0  0  0  0  0  0
   25.2600   41.7440   -8.8129 H   0  0  0  0  0  0  0  0  0  0  0  0
   26.9551   40.5499   -9.7135 H   0  0  0  0  0  0  0  0  0  0  0  0
   26.1935   40.5188  -11.2866 H   0  0  0  0  0  0  0  0  0  0  0  0
   27.2744   42.3923  -13.0123 H   0  0  0  0  0  0  0  0  0  0  0  0
   29.4209   45.5618  -12.3351 H   0  0  0  0  0  0  0  0  0  0  0  0
   28.7872   44.6524  -13.6577 H   0  0  0  0  0  0  0  0  0  0  0  0
   27.1176   47.6369  -14.7644 H   0  0  0  0  0  0  0  0  0  0  0  0
   27.6003   46.0111  -15.2359 H   0  0  0  0  0  0  0  0  0  0  0  0
   28.7977   47.1415  -14.6100 H   0  0  0  0  0  0  0  0  0  0  0  0
   28.7076   47.8564  -12.1339 H   0  0  0  0  0  0  0  0  0  0  0  0
   27.5136   47.1437  -11.0533 H   0  0  0  0  0  0  0  0  0  0  0  0
   27.0121   48.2867  -12.2933 H   0  0  0  0  0  0  0  0  0  0  0  0
   25.3369   46.6141  -13.3468 H   0  0  0  0  0  0  0  0  0  0  0  0
   25.7152   45.5794  -11.9805 H   0  0  0  0  0  0  0  0  0  0  0  0
   25.8455   44.9532  -13.6254 H   0  0  0  0  0  0  0  0  0  0  0  0
   24.6050   40.4857   -9.6403 H   0  0  0  0  0  0  0  0  0  0  0  0
  1  2  1  0  0  0  0
  1 42  1  0  0  0  0
  1 43  1  0  0  0  0
  1 44  1  0  0  0  0
  2 39  1  1  0  0  0
  2 23  1  0  0  0  0
  2  3  1  0  0  0  0
  3  4  1  0  0  0  0
  3 45  1  0  0  0  0
  3 46  1  0  0  0  0
  4  5  1  0  0  0  0
  4 47  1  0  0  0  0
  4 48  1  0  0  0  0
  5  6  2  0  0  0  0
  5 49  1  0  0  0  0
  6  7  1  0  0  0  0
  6 50  1  0  0  0  0
  7  8  1  0  0  0  0
  7 51  1  0  0  0  0
  7 52  1  0  0  0  0
  8  9  1  0  0  0  0
  8 53  1  0  0  0  0
  8 54  1  0  0  0  0
  9 10  1  0  0  0  0
  9 55  1  0  0  0  0
  9 56  1  0  0  0  0
 10 11  1  0  0  0  0
 10 57  1  0  0  0  0
 11 18  1  0  0  0  0
 11 12  2  0  0  0  0
 12 13  1  0  0  0  0
 12 58  1  0  0  0  0
 13 14  2  0  0  0  0
 13 19  1  0  0  0  0
 14 15  1  0  0  0  0
 14 59  1  0  0  0  0
 15 16  1  0  0  0  0
 15 18  2  0  0  0  0
 16 17  1  0  0  0  0
 16 60  1  0  0  0  0
 16 61  1  0  0  0  0
 17 62  1  0  0  0  0
 18 63  1  0  0  0  0
 19 20  2  0  0  0  0
 19 21  1  0  0  0  0
 21 22  1  0  0  0  0
 21 64  1  0  0  0  0
 22 40  1  1  0  0  0
 22 23  1  0  0  0  0
 22 24  1  0  0  0  0
 23 65  1  0  0  0  0
 23 66  1  0  0  0  0
 24 41  1  1  0  0  0
 24 25  1  0  0  0  0
 24 26  1  0  0  0  0
 25 67  1  0  0  0  0
 26 27  1  0  0  0  0
 26 68  1  0  0  0  0
 26 69  1  0  0  0  0
 27 28  1  0  0  0  0
 27 70  1  0  0  0  0
 27 85  1  0  0  0  0
 28 29  1  0  0  0  0
 28 71  1  0  0  0  0
 28 72  1  0  0  0  0
 29 38  2  0  0  0  0
 29 30  1  0  0  0  0
 30 31  2  0  0  0  0
 30 73  1  0  0  0  0
 31 32  1  0  0  0  0
 31 37  1  0  0  0  0
 32 33  1  0  0  0  0
 32 74  1  0  0  0  0
 32 75  1  0  0  0  0
 33 34  1  0  0  0  0
 33 35  1  0  0  0  0
 33 36  1  0  0  0  0
 34 76  1  0  0  0  0
 34 77  1  0  0  0  0
 34 78  1  0  0  0  0
 35 79  1  0  0  0  0
 35 80  1  0  0  0  0
 35 81  1  0  0  0  0
 36 82  1  0  0  0  0
 36 83  1  0  0  0  0
 36 84  1  0  0  0  0
 37 38  1  0  0  0  0
M  CHG  1  27   1
M  END
>  <s_m_source_file>
BACE_67.smi

>  <i_m_source_file_index>
1

>  <i_lp_mmshare_version>
42013

>  <i_f3d_flags>
0

>  <s_epik_input>
W05IXTFbQ0gyXVtDSDJdW0NIMl1cW0NIXT1bQ0hdXFtDSDJdW0NIMl1bQ0BASF0oW0NIM10pW0NIMl1bQ0BIXShbTkhdQyg9TyljKFtjSF1jMTIpW2NIXWMoW2NIXTIpW0NIMl1bT0hdKVtDQEhdKFtPSF0pW0NIMl1bTkhdW0NIMl1jM1tjSF1jKG9uMylbQ0gyXUMoW0NIM10pKFtDSDNdKVtDSDNd

>  <s_epik_cmdline>
J2VwaWtfcHl0aG9uJywgJy1waCcsICc3LjAnLCAnLXRuJywgJzgnLCAnLW1hJywgJzIwMCcsICctaW1hZScsICc8aW5maWxlLm1hZT4nLCAnLW9tYWUnLCAnPG91dGZpbGUubWFlPic=

>  <r_epik_Ionization_Penalty>
0.5930

>  <r_epik_Ionization_Penalty_Charging>
0.5925

>  <r_epik_Ionization_Penalty_Neutral>
0.0005

>  <r_epik_State_Penalty>
0.6062

>  <r_epik_Charging_Adjusted_Penalty>
1.19864

>  <i_epik_Tot_Q>
1

>  <i_epik_Tot_abs_Q>
1

>  <s_lp_Force_Field>
OPLS_2005

>  <r_lp_Energy>
27.9283

>  <b_lp_Chiralities_Consistent>
1

>  <s_lp_Variant>
BACE_67.smi:1-2

>  <chiral flag>
1

>  <version>
0

>  <s_i_glide_gridfile>
second_dock_grid_2

>  <i_i_glide_lignum>
134

>  <i_i_glide_rotatable_bonds>
10

>  <r_i_docking_score>
-3.33068

>  <r_i_glide_ligand_efficiency>
-0.0876495

>  <r_i_glide_ligand_efficiency_sa>
-0.294676

>  <r_i_glide_ligand_efficiency_ln>
-0.718193

>  <r_glide_XP_GScore>
-3.93688

>  <r_i_glide_gscore>
-3.93688

>  <r_i_glide_evdw>
-40.3406

>  <r_i_glide_ecoul>
-12.3224

>  <r_i_glide_energy>
-52.6629

>  <r_i_glide_einternal>
6.47557

>  <r_i_glide_emodel>
-73.2587

>  <r_glide_XP_HBond>
-1.46472

>  <i_i_glide_confnum>
1

>  <i_i_glide_posenum>
11

>  <r_i_glide_eff_state_penalty>
0.6062

>  <i_glide_XP_PoseRank>
1

$$$$
