BACE_99.smi:1
 OpenBabel09291822493D
Structure written by MMmdl.
 81 84  0  0  1  0  0  0  0  0999 V2000
   16.7607   47.6638   -9.3121 C   0  0  0  0  0  0  0  0  0  0  0  0
   16.0633   46.4240   -9.3099 O   0  0  0  0  0  0  0  0  0  0  0  0
   16.6753   45.3540   -8.6921 C   0  0  0  0  0  0  0  0  0  0  0  0
   17.8391   45.4563   -7.9032 C   0  0  0  0  0  0  0  0  0  0  0  0
   18.3881   44.2838   -7.3516 C   0  0  0  0  0  0  0  0  0  0  0  0
   17.7446   43.0558   -7.6185 C   0  0  0  0  0  0  0  0  0  0  0  0
   16.5503   43.0432   -8.3769 C   0  0  0  0  0  0  0  0  0  0  0  0
   16.0439   44.1831   -8.9077 N   0  0  0  0  0  0  0  0  0  0  0  0
   15.8320   41.8488   -8.6038 N   0  0  0  0  0  0  0  0  0  0  0  0
   14.7012   41.8537   -9.5293 C   0  0  0  0  0  0  0  0  0  0  0  0
   16.1931   40.6008   -7.9295 C   0  0  0  0  0  0  0  0  0  0  0  0
   17.2330   39.7939   -8.7331 C   0  0  0  0  0  0  0  0  0  0  0  0
   17.5876   38.4393   -8.0922 C   0  0  0  0  0  0  0  0  0  0  0  0
   18.4536   38.5242   -6.8173 C   0  0  0  0  0  0  0  0  0  0  0  0
   19.8529   39.1000   -7.0267 C   0  0  0  0  0  0  0  0  0  0  0  0
   20.7143   38.5889   -8.0205 C   0  0  0  0  0  0  0  0  0  0  0  0
   22.0126   39.1146   -8.1751 C   0  0  0  0  0  0  0  0  0  0  0  0
   22.4588   40.1518   -7.3365 C   0  0  0  0  0  0  0  0  0  0  0  0
   21.6101   40.6787   -6.3405 C   0  0  0  0  0  0  0  0  0  0  0  0
   22.0849   41.7839   -5.3994 C   0  0  0  0  0  0  0  0  0  0  0  0
   21.7122   43.2414   -5.7981 C   0  0  2  0  0  0  0  0  0  0  0  0
   20.4409   43.3289   -6.5152 N   0  0  0  0  0  0  0  0  0  0  0  0
   19.5904   44.3659   -6.4558 C   0  0  0  0  0  0  0  0  0  0  0  0
   19.7771   45.3676   -5.7625 O   0  0  0  0  0  0  0  0  0  0  0  0
   22.8157   44.0270   -6.5609 C   0  0  2  0  0  0  0  0  0  0  0  0
   23.4241   43.1884   -7.5188 O   0  0  0  0  0  0  0  0  0  0  0  0
   23.9437   44.5343   -5.6378 C   0  0  0  0  0  0  0  0  0  0  0  0
   23.5878   45.7443   -4.8869 N   0  0  0  0  0  0  0  0  0  0  0  0
   23.6002   46.9650   -5.6890 C   0  0  0  0  0  0  0  0  0  0  0  0
   23.2444   48.1904   -4.8699 C   0  0  0  0  0  0  0  0  0  0  0  0
   22.0843   48.9285   -5.1730 C   0  0  0  0  0  0  0  0  0  0  0  0
   21.7562   50.0658   -4.4140 C   0  0  0  0  0  0  0  0  0  0  0  0
   22.5731   50.4601   -3.3378 C   0  0  0  0  0  0  0  0  0  0  0  0
   23.7418   49.7273   -3.0241 C   0  0  0  0  0  0  0  0  0  0  0  0
   24.0740   48.5973   -3.8018 C   0  0  0  0  0  0  0  0  0  0  0  0
   24.6378   50.0969   -1.8443 C   0  0  0  0  0  0  0  0  0  0  0  0
   24.2827   49.2533   -0.6133 C   0  0  0  0  0  0  0  0  0  0  0  0
   24.6359   51.5972   -1.5069 C   0  0  0  0  0  0  0  0  0  0  0  0
   20.3166   40.1366   -6.1900 C   0  0  0  0  0  0  0  0  0  0  0  0
   21.5762   43.7700   -4.8538 H   0  0  0  0  0  0  0  0  0  0  0  0
   22.3838   44.8624   -7.1100 H   0  0  0  0  0  0  0  0  0  0  0  0
   16.2082   48.3828   -9.9188 H   0  0  0  0  0  0  0  0  0  0  0  0
   17.7559   47.5595   -9.7492 H   0  0  0  0  0  0  0  0  0  0  0  0
   16.8535   48.0740   -8.3039 H   0  0  0  0  0  0  0  0  0  0  0  0
   18.3172   46.4062   -7.7094 H   0  0  0  0  0  0  0  0  0  0  0  0
   18.1463   42.1491   -7.1921 H   0  0  0  0  0  0  0  0  0  0  0  0
   15.0140   42.1996  -10.5141 H   0  0  0  0  0  0  0  0  0  0  0  0
   13.9154   42.5137   -9.1613 H   0  0  0  0  0  0  0  0  0  0  0  0
   14.2748   40.8564   -9.6390 H   0  0  0  0  0  0  0  0  0  0  0  0
   16.5338   40.7990   -6.9116 H   0  0  0  0  0  0  0  0  0  0  0  0
   15.2890   39.9999   -7.8092 H   0  0  0  0  0  0  0  0  0  0  0  0
   16.8282   39.6021   -9.7283 H   0  0  0  0  0  0  0  0  0  0  0  0
   18.1409   40.3815   -8.8846 H   0  0  0  0  0  0  0  0  0  0  0  0
   16.6633   37.9094   -7.8499 H   0  0  0  0  0  0  0  0  0  0  0  0
   18.0914   37.8146   -8.8298 H   0  0  0  0  0  0  0  0  0  0  0  0
   17.9276   39.1070   -6.0605 H   0  0  0  0  0  0  0  0  0  0  0  0
   18.5570   37.5277   -6.3904 H   0  0  0  0  0  0  0  0  0  0  0  0
   20.3914   37.7796   -8.6620 H   0  0  0  0  0  0  0  0  0  0  0  0
   22.6715   38.7117   -8.9316 H   0  0  0  0  0  0  0  0  0  0  0  0
   23.4602   40.5334   -7.4584 H   0  0  0  0  0  0  0  0  0  0  0  0
   21.6355   41.5740   -4.4280 H   0  0  0  0  0  0  0  0  0  0  0  0
   23.1581   41.6893   -5.2306 H   0  0  0  0  0  0  0  0  0  0  0  0
   20.1866   42.5407   -7.0960 H   0  0  0  0  0  0  0  0  0  0  0  0
   22.7447   42.8090   -8.0578 H   0  0  0  0  0  0  0  0  0  0  0  0
   24.2185   43.7440   -4.9392 H   0  0  0  0  0  0  0  0  0  0  0  0
   24.8441   44.7325   -6.2212 H   0  0  0  0  0  0  0  0  0  0  0  0
   24.2694   45.8392   -4.1365 H   0  0  0  0  0  0  0  0  0  0  0  0
   24.5880   47.1242   -6.1262 H   0  0  0  0  0  0  0  0  0  0  0  0
   22.9006   46.8919   -6.5220 H   0  0  0  0  0  0  0  0  0  0  0  0
   21.4383   48.6197   -5.9835 H   0  0  0  0  0  0  0  0  0  0  0  0
   20.8597   50.6223   -4.6382 H   0  0  0  0  0  0  0  0  0  0  0  0
   22.2753   51.3180   -2.7552 H   0  0  0  0  0  0  0  0  0  0  0  0
   24.9613   48.0267   -3.5682 H   0  0  0  0  0  0  0  0  0  0  0  0
   25.6601   49.8423   -2.1306 H   0  0  0  0  0  0  0  0  0  0  0  0
   24.3730   48.1877   -0.8248 H   0  0  0  0  0  0  0  0  0  0  0  0
   23.2585   49.4456   -0.3037 H   0  0  0  0  0  0  0  0  0  0  0  0
   24.9384   49.4819    0.2278 H   0  0  0  0  0  0  0  0  0  0  0  0
   24.9465   52.1880   -2.3684 H   0  0  0  0  0  0  0  0  0  0  0  0
   25.3250   51.8122   -0.6901 H   0  0  0  0  0  0  0  0  0  0  0  0
   23.6540   51.9438   -1.1890 H   0  0  0  0  0  0  0  0  0  0  0  0
   19.6723   40.5143   -5.4147 H   0  0  0  0  0  0  0  0  0  0  0  0
  1  2  1  0  0  0  0
  1 42  1  0  0  0  0
  1 43  1  0  0  0  0
  1 44  1  0  0  0  0
  2  3  1  0  0  0  0
  3  8  1  0  0  0  0
  3  4  2  0  0  0  0
  4  5  1  0  0  0  0
  4 45  1  0  0  0  0
  5 23  1  0  0  0  0
  5  6  2  0  0  0  0
  6  7  1  0  0  0  0
  6 46  1  0  0  0  0
  7  8  2  0  0  0  0
  7  9  1  0  0  0  0
  9 10  1  0  0  0  0
  9 11  1  0  0  0  0
 10 47  1  0  0  0  0
 10 48  1  0  0  0  0
 10 49  1  0  0  0  0
 11 12  1  0  0  0  0
 11 50  1  0  0  0  0
 11 51  1  0  0  0  0
 12 13  1  0  0  0  0
 12 52  1  0  0  0  0
 12 53  1  0  0  0  0
 13 14  1  0  0  0  0
 13 54  1  0  0  0  0
 13 55  1  0  0  0  0
 14 15  1  0  0  0  0
 14 56  1  0  0  0  0
 14 57  1  0  0  0  0
 15 39  1  0  0  0  0
 15 16  2  0  0  0  0
 16 17  1  0  0  0  0
 16 58  1  0  0  0  0
 17 18  2  0  0  0  0
 17 59  1  0  0  0  0
 18 19  1  0  0  0  0
 18 60  1  0  0  0  0
 19 20  1  0  0  0  0
 19 39  2  0  0  0  0
 20 21  1  0  0  0  0
 20 61  1  0  0  0  0
 20 62  1  0  0  0  0
 21 40  1  1  0  0  0
 21 22  1  0  0  0  0
 21 25  1  0  0  0  0
 22 23  1  0  0  0  0
 22 63  1  0  0  0  0
 23 24  2  0  0  0  0
 25 41  1  6  0  0  0
 25 26  1  0  0  0  0
 25 27  1  0  0  0  0
 26 64  1  0  0  0  0
 27 28  1  0  0  0  0
 27 65  1  0  0  0  0
 27 66  1  0  0  0  0
 28 29  1  0  0  0  0
 28 67  1  0  0  0  0
 29 30  1  0  0  0  0
 29 68  1  0  0  0  0
 29 69  1  0  0  0  0
 30 35  1  0  0  0  0
 30 31  2  0  0  0  0
 31 32  1  0  0  0  0
 31 70  1  0  0  0  0
 32 33  2  0  0  0  0
 32 71  1  0  0  0  0
 33 34  1  0  0  0  0
 33 72  1  0  0  0  0
 34 35  2  0  0  0  0
 34 36  1  0  0  0  0
 35 73  1  0  0  0  0
 36 37  1  0  0  0  0
 36 38  1  0  0  0  0
 36 74  1  0  0  0  0
 37 75  1  0  0  0  0
 37 76  1  0  0  0  0
 37 77  1  0  0  0  0
 38 78  1  0  0  0  0
 38 79  1  0  0  0  0
 38 80  1  0  0  0  0
 39 81  1  0  0  0  0
M  END
>  <s_m_source_file>
BACE_99.smi

>  <i_m_source_file_index>
1

>  <i_lp_mmshare_version>
42013

>  <i_f3d_flags>
0

>  <s_epik_input>
W0NIM11PYyhbY0hdYzEyKW5jKFtjSF0xKU4oW0NIM10pW0NIMl1bQ0gyXVtDSDJdW0NIMl1jM1tjSF1bY0hdW2NIXWMoW2NIXTMpW0NIMl1bQ0BIXShbTkhdQzI9TylbQ0BIXShbT0hdKVtDSDJdW05IXVtDSDJdYzRbY0hdW2NIXVtjSF1jKFtjSF00KVtDSF0oW0NIM10pW0NIM10=

>  <s_epik_cmdline>
J2VwaWtfcHl0aG9uJywgJy1waCcsICc3LjAnLCAnLXRuJywgJzgnLCAnLW1hJywgJzIwMCcsICctaW1hZScsICc8aW5maWxlLm1hZT4nLCAnLW9tYWUnLCAnPG91dGZpbGUubWFlPic=

>  <r_lp_tautomer_probability>
1

>  <r_epik_Ionization_Penalty>
2.0161

>  <r_epik_Ionization_Penalty_Charging>
0.0000

>  <r_epik_Ionization_Penalty_Neutral>
2.0161

>  <r_epik_State_Penalty>
2.1460

>  <r_epik_Charging_Adjusted_Penalty>
2.14597

>  <i_epik_Tot_Q>
0

>  <i_epik_Tot_abs_Q>
0

>  <s_lp_Force_Field>
OPLS_2005

>  <r_lp_Energy>
30.0569

>  <b_lp_Chiralities_Consistent>
1

>  <s_lp_Variant>
BACE_99.smi:1-2

>  <chiral flag>
1

>  <version>
0

>  <s_i_glide_gridfile>
second_dock_grid_2

>  <i_i_glide_lignum>
203

>  <i_i_glide_rotatable_bonds>
8

>  <r_i_docking_score>
-1.9008

>  <r_i_glide_ligand_efficiency>
-0.0487383

>  <r_i_glide_ligand_efficiency_sa>
-0.165282

>  <r_i_glide_ligand_efficiency_ln>
-0.407584

>  <r_glide_XP_GScore>
-4.0468

>  <r_i_glide_gscore>
-4.0468

>  <r_i_glide_evdw>
-44.1001

>  <r_i_glide_ecoul>
-7.6556

>  <r_i_glide_energy>
-51.7557

>  <r_i_glide_einternal>
5.46227

>  <r_i_glide_emodel>
-67.7469

>  <r_glide_XP_HBond>
-0.787033

>  <i_i_glide_confnum>
1

>  <i_i_glide_posenum>
1

>  <r_i_glide_eff_state_penalty>
2.146

>  <i_glide_XP_PoseRank>
1

$$$$
