BACE_21.smi:1
 OpenBabel09291822493D
Structure written by MMmdl.
 82 83  0  0  1  0  0  0  0  0999 V2000
   21.1364   42.0015   -5.4141 C   0  0  0  0  0  0  0  0  0  0  0  0
   21.0719   40.5088   -5.0668 C   0  0  0  0  0  0  0  0  0  0  0  0
   22.3659   40.0232   -4.3818 C   0  0  0  0  0  0  0  0  0  0  0  0
   20.7057   39.6837   -6.2950 C   0  0  0  0  0  0  0  0  0  0  0  0
   19.3937   39.1771   -6.4399 C   0  0  0  0  0  0  0  0  0  0  0  0
   19.0259   38.4199   -7.5676 C   0  0  0  0  0  0  0  0  0  0  0  0
   17.6100   37.8704   -7.6907 C   0  0  0  0  0  0  0  0  0  0  0  0
   16.9738   38.1997   -8.9648 N   0  0  0  0  0  0  0  0  0  0  0  0
   16.3103   39.5054   -9.0180 C   0  0  0  0  0  0  0  0  0  0  0  0
   16.0748   39.9375  -10.4885 C   0  0  1  0  0  0  0  0  0  0  0  0
   14.8717   40.6879  -10.5895 O   0  0  0  0  0  0  0  0  0  0  0  0
   17.2476   40.7541  -11.1162 C   0  0  2  0  0  0  0  0  0  0  0  0
   18.5881   39.9902  -11.0309 C   0  0  0  0  0  0  0  0  0  0  0  0
   19.8380   40.5829  -11.7297 C   0  0  2  0  0  0  0  0  0  0  0  0
   20.8277   39.4495  -12.0721 C   0  0  0  0  0  0  0  0  0  0  0  0
   20.5433   41.6499  -10.8555 C   0  0  0  0  0  0  0  0  0  0  0  0
   21.8689   42.1662  -11.4337 C   0  0  0  0  0  0  0  0  0  0  0  0
   22.4788   43.2643  -10.5957 C   0  0  0  0  0  0  0  0  0  0  0  0
   22.6137   44.5366  -11.0036 C   0  0  0  0  0  0  0  0  0  0  0  0
   23.2209   45.6361  -10.1586 C   0  0  0  0  0  0  0  0  0  0  0  0
   22.1712   46.6159   -9.6114 C   0  0  0  0  0  0  0  0  0  0  0  0
   21.1727   45.9639   -8.6368 C   0  0  0  0  0  0  0  0  0  0  0  0
   19.8200   45.5776   -9.2779 C   0  0  0  0  0  0  0  0  0  0  0  0
   18.8891   44.8154   -8.3195 C   0  0  0  0  0  0  0  0  0  0  0  0
   19.2756   44.6643   -7.1567 O   0  0  0  0  0  0  0  0  0  0  0  0
   17.6863   44.3217   -8.7326 N   0  0  0  0  0  0  0  0  0  0  0  0
   16.9692   43.4897   -7.7530 C   0  0  0  0  0  0  0  0  0  0  0  0
   17.0189   44.4636  -10.0611 C   0  0  1  0  0  0  0  0  0  0  0  0
   17.1485   45.8326  -10.7623 C   0  0  0  0  0  0  0  0  0  0  0  0
   17.0865   43.2448  -11.0056 C   0  0  0  0  0  0  0  0  0  0  0  0
   16.8604   43.3812  -12.2107 O   0  0  0  0  0  0  0  0  0  0  0  0
   17.3531   42.0523  -10.4517 N   0  0  0  0  0  0  0  0  0  0  0  0
   19.9991   38.1500   -8.5527 C   0  0  0  0  0  0  0  0  0  0  0  0
   21.3142   38.6340   -8.4137 C   0  0  0  0  0  0  0  0  0  0  0  0
   21.6633   39.4107   -7.2950 C   0  0  0  0  0  0  0  0  0  0  0  0
   15.8989   39.0443  -11.0851 H   0  0  0  0  0  0  0  0  0  0  0  0
   17.0176   40.8940  -12.1727 H   0  0  0  0  0  0  0  0  0  0  0  0
   19.5188   41.0366  -12.6684 H   0  0  0  0  0  0  0  0  0  0  0  0
   15.9589   44.4703   -9.8039 H   0  0  0  0  0  0  0  0  0  0  0  0
   20.1862   42.3446   -5.8280 H   0  0  0  0  0  0  0  0  0  0  0  0
   21.9135   42.2048   -6.1523 H   0  0  0  0  0  0  0  0  0  0  0  0
   21.3470   42.6059   -4.5313 H   0  0  0  0  0  0  0  0  0  0  0  0
   20.2668   40.3827   -4.3415 H   0  0  0  0  0  0  0  0  0  0  0  0
   22.2997   38.9655   -4.1237 H   0  0  0  0  0  0  0  0  0  0  0  0
   22.5436   40.5722   -3.4570 H   0  0  0  0  0  0  0  0  0  0  0  0
   23.2513   40.1538   -5.0055 H   0  0  0  0  0  0  0  0  0  0  0  0
   18.6572   39.3497   -5.6695 H   0  0  0  0  0  0  0  0  0  0  0  0
   17.6681   36.7864   -7.6094 H   0  0  0  0  0  0  0  0  0  0  0  0
   16.9893   38.1750   -6.8471 H   0  0  0  0  0  0  0  0  0  0  0  0
   16.3094   37.4666   -9.1934 H   0  0  0  0  0  0  0  0  0  0  0  0
   15.3594   39.4346   -8.4867 H   0  0  0  0  0  0  0  0  0  0  0  0
   16.8929   40.2609   -8.4895 H   0  0  0  0  0  0  0  0  0  0  0  0
   14.1779   40.2182  -10.1483 H   0  0  0  0  0  0  0  0  0  0  0  0
   18.8316   39.8701   -9.9820 H   0  0  0  0  0  0  0  0  0  0  0  0
   18.4044   38.9848  -11.4144 H   0  0  0  0  0  0  0  0  0  0  0  0
   21.3942   39.1438  -11.1962 H   0  0  0  0  0  0  0  0  0  0  0  0
   21.5427   39.7551  -12.8368 H   0  0  0  0  0  0  0  0  0  0  0  0
   20.3288   38.5588  -12.4401 H   0  0  0  0  0  0  0  0  0  0  0  0
   19.8864   42.5044  -10.7085 H   0  0  0  0  0  0  0  0  0  0  0  0
   20.7308   41.2466   -9.8588 H   0  0  0  0  0  0  0  0  0  0  0  0
   22.6041   41.3650  -11.5007 H   0  0  0  0  0  0  0  0  0  0  0  0
   21.7080   42.5348  -12.4409 H   0  0  0  0  0  0  0  0  0  0  0  0
   22.8128   42.9788   -9.6100 H   0  0  0  0  0  0  0  0  0  0  0  0
   22.2582   44.8277  -11.9805 H   0  0  0  0  0  0  0  0  0  0  0  0
   23.7774   45.1943   -9.3309 H   0  0  0  0  0  0  0  0  0  0  0  0
   23.9492   46.1726  -10.7685 H   0  0  0  0  0  0  0  0  0  0  0  0
   22.7044   47.4048   -9.0793 H   0  0  0  0  0  0  0  0  0  0  0  0
   21.6444   47.1146  -10.4264 H   0  0  0  0  0  0  0  0  0  0  0  0
   21.6363   45.0969   -8.1625 H   0  0  0  0  0  0  0  0  0  0  0  0
   20.9753   46.6673   -7.8269 H   0  0  0  0  0  0  0  0  0  0  0  0
   19.3414   46.5073   -9.5765 H   0  0  0  0  0  0  0  0  0  0  0  0
   19.9752   44.9730  -10.1712 H   0  0  0  0  0  0  0  0  0  0  0  0
   17.5278   42.5783   -7.5344 H   0  0  0  0  0  0  0  0  0  0  0  0
   15.9717   43.1861   -8.0723 H   0  0  0  0  0  0  0  0  0  0  0  0
   16.8621   44.0314   -6.8159 H   0  0  0  0  0  0  0  0  0  0  0  0
   16.3529   45.9593  -11.4982 H   0  0  0  0  0  0  0  0  0  0  0  0
   18.0846   45.9289  -11.3117 H   0  0  0  0  0  0  0  0  0  0  0  0
   17.0570   46.6589  -10.0575 H   0  0  0  0  0  0  0  0  0  0  0  0
   17.5287   42.0338   -9.4589 H   0  0  0  0  0  0  0  0  0  0  0  0
   19.7390   37.5567   -9.4170 H   0  0  0  0  0  0  0  0  0  0  0  0
   22.0590   38.4116   -9.1637 H   0  0  0  0  0  0  0  0  0  0  0  0
   22.6715   39.7871   -7.2076 H   0  0  0  0  0  0  0  0  0  0  0  0
  1  2  1  0  0  0  0
  1 40  1  0  0  0  0
  1 41  1  0  0  0  0
  1 42  1  0  0  0  0
  2  3  1  0  0  0  0
  2  4  1  0  0  0  0
  2 43  1  0  0  0  0
  3 44  1  0  0  0  0
  3 45  1  0  0  0  0
  3 46  1  0  0  0  0
  4 35  1  0  0  0  0
  4  5  2  0  0  0  0
  5  6  1  0  0  0  0
  5 47  1  0  0  0  0
  6  7  1  0  0  0  0
  6 33  2  0  0  0  0
  7  8  1  0  0  0  0
  7 48  1  0  0  0  0
  7 49  1  0  0  0  0
  8  9  1  0  0  0  0
  8 50  1  0  0  0  0
  9 10  1  0  0  0  0
  9 51  1  0  0  0  0
  9 52  1  0  0  0  0
 10 36  1  6  0  0  0
 10 11  1  0  0  0  0
 10 12  1  0  0  0  0
 11 53  1  0  0  0  0
 12 37  1  6  0  0  0
 12 32  1  0  0  0  0
 12 13  1  0  0  0  0
 13 14  1  0  0  0  0
 13 54  1  0  0  0  0
 13 55  1  0  0  0  0
 14 38  1  6  0  0  0
 14 15  1  0  0  0  0
 14 16  1  0  0  0  0
 15 56  1  0  0  0  0
 15 57  1  0  0  0  0
 15 58  1  0  0  0  0
 16 17  1  0  0  0  0
 16 59  1  0  0  0  0
 16 60  1  0  0  0  0
 17 18  1  0  0  0  0
 17 61  1  0  0  0  0
 17 62  1  0  0  0  0
 18 19  2  0  0  0  0
 18 63  1  0  0  0  0
 19 20  1  0  0  0  0
 19 64  1  0  0  0  0
 20 21  1  0  0  0  0
 20 65  1  0  0  0  0
 20 66  1  0  0  0  0
 21 22  1  0  0  0  0
 21 67  1  0  0  0  0
 21 68  1  0  0  0  0
 22 23  1  0  0  0  0
 22 69  1  0  0  0  0
 22 70  1  0  0  0  0
 23 24  1  0  0  0  0
 23 71  1  0  0  0  0
 23 72  1  0  0  0  0
 24 25  2  0  0  0  0
 24 26  1  0  0  0  0
 26 27  1  0  0  0  0
 26 28  1  0  0  0  0
 27 73  1  0  0  0  0
 27 74  1  0  0  0  0
 27 75  1  0  0  0  0
 28 39  1  1  0  0  0
 28 29  1  0  0  0  0
 28 30  1  0  0  0  0
 29 76  1  0  0  0  0
 29 77  1  0  0  0  0
 29 78  1  0  0  0  0
 30 31  2  0  0  0  0
 30 32  1  0  0  0  0
 32 79  1  0  0  0  0
 33 34  1  0  0  0  0
 33 80  1  0  0  0  0
 34 35  2  0  0  0  0
 34 81  1  0  0  0  0
 35 82  1  0  0  0  0
M  END
>  <s_m_source_file>
BACE_21.smi

>  <i_m_source_file_index>
1

>  <i_lp_mmshare_version>
42013

>  <i_f3d_flags>
0

>  <s_epik_input>
W0NIM11bQ0hdKFtDSDNdKWMxW2NIXWMoW2NIXVtjSF1bY0hdMSlbQ0gyXVtOSF1bQ0gyXVtDQEBIXShbT0hdKVtDQEBIXTJbQ0gyXVtDQEhdKFtDSDNdKVtDSDJdW0NIMl0vW0NIXT1bQ0hdL1tDSDJdW0NIMl1bQ0gyXVtDSDJdQyg9TylOKFtDSDNdKVtDQEBIXShbQ0gzXSlDKD1PKVtOSF0y

>  <s_epik_cmdline>
J2VwaWtfcHl0aG9uJywgJy1waCcsICc3LjAnLCAnLXRuJywgJzgnLCAnLW1hJywgJzIwMCcsICctaW1hZScsICc8aW5maWxlLm1hZT4nLCAnLW9tYWUnLCAnPG91dGZpbGUubWFlPic=

>  <r_epik_Ionization_Penalty>
2.0718

>  <r_epik_Ionization_Penalty_Charging>
0.0000

>  <r_epik_Ionization_Penalty_Neutral>
2.0718

>  <r_epik_State_Penalty>
2.2058

>  <r_epik_Charging_Adjusted_Penalty>
2.20584

>  <i_epik_Tot_Q>
0

>  <i_epik_Tot_abs_Q>
0

>  <s_lp_Force_Field>
OPLS_2005

>  <r_lp_Energy>
40.4832

>  <b_lp_Chiralities_Consistent>
1

>  <s_lp_Variant>
BACE_21.smi:1-2

>  <chiral flag>
1

>  <version>
0

>  <s_i_glide_gridfile>
second_dock_grid_2

>  <i_i_glide_lignum>
33

>  <i_i_glide_rotatable_bonds>
7

>  <r_i_docking_score>
-1.91574

>  <r_i_glide_ligand_efficiency>
-0.0547353

>  <r_i_glide_ligand_efficiency_sa>
-0.179043

>  <r_i_glide_ligand_efficiency_ln>
-0.420547

>  <r_glide_XP_GScore>
-4.12154

>  <r_i_glide_gscore>
-4.12154

>  <r_i_glide_evdw>
-36.9712

>  <r_i_glide_ecoul>
-10.5915

>  <r_i_glide_energy>
-47.5628

>  <r_i_glide_einternal>
9.25169

>  <r_i_glide_emodel>
-55.905

>  <r_glide_XP_HBond>
-0.7

>  <i_i_glide_confnum>
1

>  <i_i_glide_posenum>
1

>  <r_i_glide_eff_state_penalty>
2.2058

>  <i_glide_XP_PoseRank>
1

$$$$
