BACE_56.smi:1
 OpenBabel09291822493D
Structure written by MMmdl.
 88 91  0  0  1  0  0  0  0  0999 V2000
   21.6602   39.3896  -10.1429 C   0  0  0  0  0  0  0  0  0  0  0  0
   20.5077   40.3448   -9.7865 C   0  0  2  0  0  0  0  0  0  0  0  0
   19.1807   39.5933   -9.5588 C   0  0  0  0  0  0  0  0  0  0  0  0
   19.2089   38.5837   -8.3949 C   0  0  0  0  0  0  0  0  0  0  0  0
   17.8222   38.0031   -8.0895 C   0  0  0  0  0  0  0  0  0  0  0  0
   16.9355   38.9489   -7.2563 C   0  0  0  0  0  0  0  0  0  0  0  0
   15.4320   38.6558   -7.4021 C   0  0  0  0  0  0  0  0  0  0  0  0
   14.7126   39.5484   -8.4112 C   0  0  0  0  0  0  0  0  0  0  0  0
   15.1596   39.3357   -9.8640 C   0  0  0  0  0  0  0  0  0  0  0  0
   14.4616   40.2413  -10.7588 N   0  0  0  0  0  0  0  0  0  0  0  0
   14.9655   41.5444  -10.7101 C   0  0  0  0  0  0  0  0  0  0  0  0
   16.2399   41.8454  -11.2401 C   0  0  0  0  0  0  0  0  0  0  0  0
   16.6758   43.1863  -11.3106 C   0  0  0  0  0  0  0  0  0  0  0  0
   15.8849   44.2076  -10.7445 C   0  0  0  0  0  0  0  0  0  0  0  0
   14.6539   43.8957  -10.1377 C   0  0  0  0  0  0  0  0  0  0  0  0
   14.1834   42.5701  -10.1445 C   0  0  0  0  0  0  0  0  0  0  0  0
   17.8531   43.5563  -12.1566 C   0  0  0  0  0  0  0  0  0  0  0  0
   17.6585   44.1012  -13.2399 O   0  0  0  0  0  0  0  0  0  0  0  0
   19.0980   43.2815  -11.7555 N   0  0  0  0  0  0  0  0  0  0  0  0
   19.6477   42.7345  -10.5192 C   0  0  1  0  0  0  0  0  0  0  0  0
   20.3592   41.4072  -10.9005 C   0  0  0  0  0  0  0  0  0  0  0  0
   20.5989   43.8380   -9.9528 C   0  0  2  0  0  0  0  0  0  0  0  0
   21.4175   44.3281  -11.0055 O   0  0  0  0  0  0  0  0  0  0  0  0
   21.5816   43.4198   -8.8417 C   0  0  0  0  0  0  0  0  0  0  0  0
   20.9930   43.2346   -7.5035 N   0  0  0  0  0  0  0  0  0  0  0  0
   20.7283   44.4319   -6.6739 C   0  0  0  0  0  0  0  0  0  0  0  0
   19.9256   44.1932   -5.3841 C   0  0  0  0  0  0  0  0  0  0  0  0
   19.0928   45.3499   -5.6401 O   0  0  0  0  0  0  0  0  0  0  0  0
   19.4728   45.2517   -7.0317 C   0  0  0  0  0  0  0  0  0  0  0  0
   22.0117   45.2569   -6.3909 C   0  0  0  0  0  0  0  0  0  0  0  0
   23.3099   44.7113   -6.5679 C   0  0  0  0  0  0  0  0  0  0  0  0
   24.4810   45.4984   -6.4444 C   0  0  0  0  0  0  0  0  0  0  0  0
   24.3425   46.8240   -5.9690 C   0  0  0  0  0  0  0  0  0  0  0  0
   23.0713   47.3577   -5.6964 C   0  0  0  0  0  0  0  0  0  0  0  0
   21.9166   46.5900   -5.9245 C   0  0  0  0  0  0  0  0  0  0  0  0
   25.8619   44.9195   -6.8166 C   0  0  0  0  0  0  0  0  0  0  0  0
   26.4572   44.2304   -5.5831 C   0  0  0  0  0  0  0  0  0  0  0  0
   25.7637   43.8864   -7.9652 C   0  0  0  0  0  0  0  0  0  0  0  0
   26.8422   46.0160   -7.2930 C   0  0  0  0  0  0  0  0  0  0  0  0
   20.7699   40.8294   -8.8508 H   0  0  0  0  0  0  0  0  0  0  0  0
   18.8493   42.5407   -9.8018 H   0  0  0  0  0  0  0  0  0  0  0  0
   19.9983   44.6850   -9.6233 H   0  0  0  0  0  0  0  0  0  0  0  0
   21.4592   38.8693  -11.0774 H   0  0  0  0  0  0  0  0  0  0  0  0
   21.8355   38.6424   -9.3702 H   0  0  0  0  0  0  0  0  0  0  0  0
   22.5978   39.9311  -10.2685 H   0  0  0  0  0  0  0  0  0  0  0  0
   18.8876   39.0783  -10.4746 H   0  0  0  0  0  0  0  0  0  0  0  0
   18.3979   40.3270   -9.3689 H   0  0  0  0  0  0  0  0  0  0  0  0
   19.6224   39.0437   -7.4970 H   0  0  0  0  0  0  0  0  0  0  0  0
   19.8728   37.7583   -8.6537 H   0  0  0  0  0  0  0  0  0  0  0  0
   17.9322   37.0667   -7.5420 H   0  0  0  0  0  0  0  0  0  0  0  0
   17.3358   37.7321   -9.0259 H   0  0  0  0  0  0  0  0  0  0  0  0
   17.1252   39.9953   -7.4993 H   0  0  0  0  0  0  0  0  0  0  0  0
   17.2186   38.8412   -6.2075 H   0  0  0  0  0  0  0  0  0  0  0  0
   14.9524   38.8190   -6.4400 H   0  0  0  0  0  0  0  0  0  0  0  0
   15.2601   37.6093   -7.6411 H   0  0  0  0  0  0  0  0  0  0  0  0
   14.8488   40.5882   -8.1116 H   0  0  0  0  0  0  0  0  0  0  0  0
   13.6447   39.3497   -8.3408 H   0  0  0  0  0  0  0  0  0  0  0  0
   16.2356   39.4738   -9.9603 H   0  0  0  0  0  0  0  0  0  0  0  0
   14.9492   38.3091  -10.1645 H   0  0  0  0  0  0  0  0  0  0  0  0
   13.4550   40.1658  -10.6241 H   0  0  0  0  0  0  0  0  0  0  0  0
   16.8278   41.0614  -11.6985 H   0  0  0  0  0  0  0  0  0  0  0  0
   16.2079   45.2372  -10.8036 H   0  0  0  0  0  0  0  0  0  0  0  0
   14.0522   44.6774   -9.7000 H   0  0  0  0  0  0  0  0  0  0  0  0
   13.2232   42.3371   -9.7064 H   0  0  0  0  0  0  0  0  0  0  0  0
   19.8252   43.6091  -12.3756 H   0  0  0  0  0  0  0  0  0  0  0  0
   21.3396   41.6517  -11.3129 H   0  0  0  0  0  0  0  0  0  0  0  0
   19.8280   40.9324  -11.7282 H   0  0  0  0  0  0  0  0  0  0  0  0
   21.9610   45.0245  -10.6670 H   0  0  0  0  0  0  0  0  0  0  0  0
   22.3672   44.1711   -8.8016 H   0  0  0  0  0  0  0  0  0  0  0  0
   22.1058   42.5135   -9.1408 H   0  0  0  0  0  0  0  0  0  0  0  0
   21.5382   42.5692   -6.9627 H   0  0  0  0  0  0  0  0  0  0  0  0
   19.3376   43.2728   -5.3961 H   0  0  0  0  0  0  0  0  0  0  0  0
   20.5080   44.2678   -4.4652 H   0  0  0  0  0  0  0  0  0  0  0  0
   18.7276   44.6911   -7.6009 H   0  0  0  0  0  0  0  0  0  0  0  0
   19.6743   46.2116   -7.5080 H   0  0  0  0  0  0  0  0  0  0  0  0
   23.4069   43.6789   -6.8566 H   0  0  0  0  0  0  0  0  0  0  0  0
   25.2037   47.4535   -5.8061 H   0  0  0  0  0  0  0  0  0  0  0  0
   22.9778   48.3697   -5.3299 H   0  0  0  0  0  0  0  0  0  0  0  0
   20.9565   47.0413   -5.7260 H   0  0  0  0  0  0  0  0  0  0  0  0
   26.6357   44.9517   -4.7861 H   0  0  0  0  0  0  0  0  0  0  0  0
   27.4096   43.7506   -5.8114 H   0  0  0  0  0  0  0  0  0  0  0  0
   25.7761   43.4704   -5.1958 H   0  0  0  0  0  0  0  0  0  0  0  0
   25.2410   44.3013   -8.8277 H   0  0  0  0  0  0  0  0  0  0  0  0
   25.2546   42.9687   -7.6703 H   0  0  0  0  0  0  0  0  0  0  0  0
   26.7531   43.5826   -8.3081 H   0  0  0  0  0  0  0  0  0  0  0  0
   26.4311   46.5774   -8.1315 H   0  0  0  0  0  0  0  0  0  0  0  0
   27.7883   45.5852   -7.6216 H   0  0  0  0  0  0  0  0  0  0  0  0
   27.0927   46.7238   -6.5037 H   0  0  0  0  0  0  0  0  0  0  0  0
  1  2  1  0  0  0  0
  1 43  1  0  0  0  0
  1 44  1  0  0  0  0
  1 45  1  0  0  0  0
  2 40  1  1  0  0  0
  2 21  1  0  0  0  0
  2  3  1  0  0  0  0
  3  4  1  0  0  0  0
  3 46  1  0  0  0  0
  3 47  1  0  0  0  0
  4  5  1  0  0  0  0
  4 48  1  0  0  0  0
  4 49  1  0  0  0  0
  5  6  1  0  0  0  0
  5 50  1  0  0  0  0
  5 51  1  0  0  0  0
  6  7  1  0  0  0  0
  6 52  1  0  0  0  0
  6 53  1  0  0  0  0
  7  8  1  0  0  0  0
  7 54  1  0  0  0  0
  7 55  1  0  0  0  0
  8  9  1  0  0  0  0
  8 56  1  0  0  0  0
  8 57  1  0  0  0  0
  9 10  1  0  0  0  0
  9 58  1  0  0  0  0
  9 59  1  0  0  0  0
 10 11  1  0  0  0  0
 10 60  1  0  0  0  0
 11 16  1  0  0  0  0
 11 12  2  0  0  0  0
 12 13  1  0  0  0  0
 12 61  1  0  0  0  0
 13 14  2  0  0  0  0
 13 17  1  0  0  0  0
 14 15  1  0  0  0  0
 14 62  1  0  0  0  0
 15 16  2  0  0  0  0
 15 63  1  0  0  0  0
 16 64  1  0  0  0  0
 17 18  2  0  0  0  0
 17 19  1  0  0  0  0
 19 20  1  0  0  0  0
 19 65  1  0  0  0  0
 20 41  1  1  0  0  0
 20 21  1  0  0  0  0
 20 22  1  0  0  0  0
 21 66  1  0  0  0  0
 21 67  1  0  0  0  0
 22 42  1  1  0  0  0
 22 23  1  0  0  0  0
 22 24  1  0  0  0  0
 23 68  1  0  0  0  0
 24 25  1  0  0  0  0
 24 69  1  0  0  0  0
 24 70  1  0  0  0  0
 25 26  1  0  0  0  0
 25 71  1  0  0  0  0
 26 29  1  0  0  0  0
 26 27  1  0  0  0  0
 26 30  1  0  0  0  0
 27 28  1  0  0  0  0
 27 72  1  0  0  0  0
 27 73  1  0  0  0  0
 28 29  1  0  0  0  0
 29 74  1  0  0  0  0
 29 75  1  0  0  0  0
 30 35  1  0  0  0  0
 30 31  2  0  0  0  0
 31 32  1  0  0  0  0
 31 76  1  0  0  0  0
 32 33  2  0  0  0  0
 32 36  1  0  0  0  0
 33 34  1  0  0  0  0
 33 77  1  0  0  0  0
 34 35  2  0  0  0  0
 34 78  1  0  0  0  0
 35 79  1  0  0  0  0
 36 37  1  0  0  0  0
 36 38  1  0  0  0  0
 36 39  1  0  0  0  0
 37 80  1  0  0  0  0
 37 81  1  0  0  0  0
 37 82  1  0  0  0  0
 38 83  1  0  0  0  0
 38 84  1  0  0  0  0
 38 85  1  0  0  0  0
 39 86  1  0  0  0  0
 39 87  1  0  0  0  0
 39 88  1  0  0  0  0
M  END
>  <s_m_source_file>
BACE_56.smi

>  <i_m_source_file_index>
1

>  <i_lp_mmshare_version>
42013

>  <i_f3d_flags>
0

>  <s_epik_input>
W05IXTFbQ0gyXVtDSDJdW0NIMl1bQ0gyXVtDSDJdW0NIMl1bQ0gyXVtDQEBIXShbQ0gzXSlbQ0gyXVtDQEhdKFtOSF1DKD1PKWMoW2NIXWMxMilbY0hdW2NIXVtjSF0yKVtDQEhdKFtPSF0pW0NIMl1bTkhdQzMoW0NIMl1PW0NIMl0zKWM0W2NIXWMoQyhbQ0gzXSkoW0NIM10pW0NIM10pW2NIXVtjSF1bY0hdNA==

>  <s_epik_cmdline>
J2VwaWtfcHl0aG9uJywgJy1waCcsICc3LjAnLCAnLXRuJywgJzgnLCAnLW1hJywgJzIwMCcsICctaW1hZScsICc8aW5maWxlLm1hZT4nLCAnLW9tYWUnLCAnPG91dGZpbGUubWFlPic=

>  <r_epik_Ionization_Penalty>
0.7364

>  <r_epik_Ionization_Penalty_Charging>
0.0000

>  <r_epik_Ionization_Penalty_Neutral>
0.7364

>  <r_epik_State_Penalty>
0.7613

>  <r_epik_Charging_Adjusted_Penalty>
0.761291

>  <i_epik_Tot_Q>
0

>  <i_epik_Tot_abs_Q>
0

>  <s_lp_Force_Field>
OPLS_2005

>  <r_lp_Energy>
57.7949

>  <b_lp_Chiralities_Consistent>
1

>  <s_lp_Variant>
BACE_56.smi:1-2

>  <chiral flag>
1

>  <version>
0

>  <s_i_glide_gridfile>
second_dock_grid_2

>  <i_i_glide_lignum>
109

>  <i_i_glide_rotatable_bonds>
7

>  <r_i_docking_score>
-2.66149

>  <r_i_glide_ligand_efficiency>
-0.0682434

>  <r_i_glide_ligand_efficiency_sa>
-0.231428

>  <r_i_glide_ligand_efficiency_ln>
-0.570699

>  <r_glide_XP_GScore>
-3.42279

>  <r_i_glide_gscore>
-3.42279

>  <r_i_glide_evdw>
-37.0241

>  <r_i_glide_ecoul>
-12.2952

>  <r_i_glide_energy>
-49.3193

>  <r_i_glide_einternal>
7.72206

>  <r_i_glide_emodel>
-63.0057

>  <r_glide_XP_HBond>
-1.55303

>  <i_i_glide_confnum>
1

>  <i_i_glide_posenum>
16

>  <r_i_glide_eff_state_penalty>
0.7613

>  <i_glide_XP_PoseRank>
1

$$$$
