BACE_115.smi:1
 OpenBabel09291822493D
Structure written by MMmdl.
 81 84  0  0  1  0  0  0  0  0999 V2000
   22.2687   50.5917   -2.9096 C   0  0  0  0  0  0  0  0  0  0  0  0
   23.5506   50.1750   -2.1591 C   0  0  0  0  0  0  0  0  0  0  0  0
   24.3045   51.4370   -1.6918 C   0  0  0  0  0  0  0  0  0  0  0  0
   24.4416   49.1883   -2.9275 C   0  0  0  0  0  0  0  0  0  0  0  0
   25.7950   49.0287   -2.5587 C   0  0  0  0  0  0  0  0  0  0  0  0
   26.6230   48.1198   -3.2398 C   0  0  0  0  0  0  0  0  0  0  0  0
   26.1064   47.3518   -4.2962 C   0  0  0  0  0  0  0  0  0  0  0  0
   24.7610   47.4945   -4.7103 C   0  0  0  0  0  0  0  0  0  0  0  0
   23.9357   48.4032   -3.9963 C   0  0  0  0  0  0  0  0  0  0  0  0
   24.2230   46.6642   -5.8970 C   0  0  0  0  0  0  0  0  0  0  0  0
   22.9849   47.3288   -6.5446 C   0  0  0  0  0  0  0  0  0  0  0  0
   25.3055   46.5850   -7.0043 C   0  0  0  0  0  0  0  0  0  0  0  0
   23.8833   45.3191   -5.3705 N   0  0  0  0  0  0  0  0  0  0  0  0
   23.7469   44.1715   -6.2865 C   0  0  0  0  0  0  0  0  0  0  0  0
   22.3564   44.0231   -6.9536 C   0  0  1  0  0  0  0  0  0  0  0  0
   22.5247   43.3598   -8.1893 O   0  0  0  0  0  0  0  0  0  0  0  0
   21.2917   43.2721   -6.1094 C   0  0  2  0  0  0  0  0  0  0  0  0
   21.6191   41.7976   -5.7316 C   0  0  0  0  0  0  0  0  0  0  0  0
   21.3155   40.7306   -6.7780 C   0  0  0  0  0  0  0  0  0  0  0  0
   22.3299   40.2746   -7.6464 C   0  0  0  0  0  0  0  0  0  0  0  0
   22.0597   39.2525   -8.5771 C   0  0  0  0  0  0  0  0  0  0  0  0
   20.7849   38.6574   -8.6273 C   0  0  0  0  0  0  0  0  0  0  0  0
   19.7664   39.0907   -7.7525 C   0  0  0  0  0  0  0  0  0  0  0  0
   18.4024   38.4131   -7.7517 C   0  0  0  0  0  0  0  0  0  0  0  0
   17.6051   38.5775   -9.0567 C   0  0  0  0  0  0  0  0  0  0  0  0
   17.1124   40.0036   -9.3353 C   0  0  0  0  0  0  0  0  0  0  0  0
   15.9906   40.4627   -8.3863 C   0  0  0  0  0  0  0  0  0  0  0  0
   15.4295   41.7453   -8.7873 N   0  0  0  0  0  0  0  0  0  0  0  0
   16.0826   42.9583   -8.5141 C   0  0  0  0  0  0  0  0  0  0  0  0
   15.5082   44.1419   -9.0213 C   0  0  0  0  0  0  0  0  0  0  0  0
   16.1093   45.3920   -8.7843 C   0  0  0  0  0  0  0  0  0  0  0  0
   17.2998   45.4668   -8.0351 C   0  0  0  0  0  0  0  0  0  0  0  0
   17.8975   44.2950   -7.5221 C   0  0  0  0  0  0  0  0  0  0  0  0
   17.2766   43.0433   -7.7572 C   0  0  0  0  0  0  0  0  0  0  0  0
   19.1358   44.3996   -6.6775 C   0  0  0  0  0  0  0  0  0  0  0  0
   19.3320   45.3978   -5.9784 O   0  0  0  0  0  0  0  0  0  0  0  0
   19.9908   43.3700   -6.7682 N   0  0  0  0  0  0  0  0  0  0  0  0
   20.0384   40.1311   -6.8401 C   0  0  0  0  0  0  0  0  0  0  0  0
   21.9618   45.0059   -7.1979 H   0  0  0  0  0  0  0  0  0  0  0  0
   21.2325   43.8192   -5.1644 H   0  0  0  0  0  0  0  0  0  0  0  0
   21.6007   49.7516   -3.1012 H   0  0  0  0  0  0  0  0  0  0  0  0
   22.5024   51.0523   -3.8687 H   0  0  0  0  0  0  0  0  0  0  0  0
   21.6897   51.3114   -2.3293 H   0  0  0  0  0  0  0  0  0  0  0  0
   23.2406   49.6543   -1.2534 H   0  0  0  0  0  0  0  0  0  0  0  0
   25.0623   51.2129   -0.9426 H   0  0  0  0  0  0  0  0  0  0  0  0
   23.6199   52.1499   -1.2358 H   0  0  0  0  0  0  0  0  0  0  0  0
   24.7970   51.9412   -2.5217 H   0  0  0  0  0  0  0  0  0  0  0  0
   26.2248   49.5841   -1.7386 H   0  0  0  0  0  0  0  0  0  0  0  0
   27.6559   48.0083   -2.9471 H   0  0  0  0  0  0  0  0  0  0  0  0
   26.7723   46.6536   -4.7805 H   0  0  0  0  0  0  0  0  0  0  0  0
   22.9025   48.5010   -4.2770 H   0  0  0  0  0  0  0  0  0  0  0  0
   23.1775   48.3798   -6.7620 H   0  0  0  0  0  0  0  0  0  0  0  0
   22.1031   47.2650   -5.9048 H   0  0  0  0  0  0  0  0  0  0  0  0
   22.7382   46.8722   -7.5039 H   0  0  0  0  0  0  0  0  0  0  0  0
   25.6666   47.5815   -7.2675 H   0  0  0  0  0  0  0  0  0  0  0  0
   24.9200   46.1455   -7.9253 H   0  0  0  0  0  0  0  0  0  0  0  0
   26.1691   45.9846   -6.7149 H   0  0  0  0  0  0  0  0  0  0  0  0
   24.5075   45.0874   -4.5973 H   0  0  0  0  0  0  0  0  0  0  0  0
   24.5253   44.2022   -7.0507 H   0  0  0  0  0  0  0  0  0  0  0  0
   23.9780   43.2638   -5.7324 H   0  0  0  0  0  0  0  0  0  0  0  0
   22.6164   42.4332   -8.0303 H   0  0  0  0  0  0  0  0  0  0  0  0
   22.6459   41.6888   -5.3916 H   0  0  0  0  0  0  0  0  0  0  0  0
   21.0228   41.5489   -4.8521 H   0  0  0  0  0  0  0  0  0  0  0  0
   23.3268   40.6916   -7.6006 H   0  0  0  0  0  0  0  0  0  0  0  0
   22.8473   38.9161   -9.2374 H   0  0  0  0  0  0  0  0  0  0  0  0
   20.5940   37.8561   -9.3255 H   0  0  0  0  0  0  0  0  0  0  0  0
   18.5657   37.3511   -7.5708 H   0  0  0  0  0  0  0  0  0  0  0  0
   17.8147   38.7596   -6.9017 H   0  0  0  0  0  0  0  0  0  0  0  0
   18.2126   38.2345   -9.8941 H   0  0  0  0  0  0  0  0  0  0  0  0
   16.7433   37.9113   -9.0252 H   0  0  0  0  0  0  0  0  0  0  0  0
   17.9498   40.7017   -9.3035 H   0  0  0  0  0  0  0  0  0  0  0  0
   16.7366   40.0387  -10.3578 H   0  0  0  0  0  0  0  0  0  0  0  0
   15.1768   39.7351   -8.4041 H   0  0  0  0  0  0  0  0  0  0  0  0
   16.3264   40.5016   -7.3494 H   0  0  0  0  0  0  0  0  0  0  0  0
   14.4580   41.7609   -9.0579 H   0  0  0  0  0  0  0  0  0  0  0  0
   14.6001   44.0925   -9.6033 H   0  0  0  0  0  0  0  0  0  0  0  0
   15.6614   46.2922   -9.1774 H   0  0  0  0  0  0  0  0  0  0  0  0
   17.7505   46.4304   -7.8499 H   0  0  0  0  0  0  0  0  0  0  0  0
   17.7139   42.1520   -7.3323 H   0  0  0  0  0  0  0  0  0  0  0  0
   19.7386   42.6040   -7.3741 H   0  0  0  0  0  0  0  0  0  0  0  0
   19.2602   40.4490   -6.1654 H   0  0  0  0  0  0  0  0  0  0  0  0
  1  2  1  0  0  0  0
  1 41  1  0  0  0  0
  1 42  1  0  0  0  0
  1 43  1  0  0  0  0
  2  3  1  0  0  0  0
  2  4  1  0  0  0  0
  2 44  1  0  0  0  0
  3 45  1  0  0  0  0
  3 46  1  0  0  0  0
  3 47  1  0  0  0  0
  4  9  1  0  0  0  0
  4  5  2  0  0  0  0
  5  6  1  0  0  0  0
  5 48  1  0  0  0  0
  6  7  2  0  0  0  0
  6 49  1  0  0  0  0
  7  8  1  0  0  0  0
  7 50  1  0  0  0  0
  8  9  2  0  0  0  0
  8 10  1  0  0  0  0
  9 51  1  0  0  0  0
 10 11  1  0  0  0  0
 10 12  1  0  0  0  0
 10 13  1  0  0  0  0
 11 52  1  0  0  0  0
 11 53  1  0  0  0  0
 11 54  1  0  0  0  0
 12 55  1  0  0  0  0
 12 56  1  0  0  0  0
 12 57  1  0  0  0  0
 13 14  1  0  0  0  0
 13 58  1  0  0  0  0
 14 15  1  0  0  0  0
 14 59  1  0  0  0  0
 14 60  1  0  0  0  0
 15 39  1  6  0  0  0
 15 16  1  0  0  0  0
 15 17  1  0  0  0  0
 16 61  1  0  0  0  0
 17 40  1  1  0  0  0
 17 37  1  0  0  0  0
 17 18  1  0  0  0  0
 18 19  1  0  0  0  0
 18 62  1  0  0  0  0
 18 63  1  0  0  0  0
 19 38  1  0  0  0  0
 19 20  2  0  0  0  0
 20 21  1  0  0  0  0
 20 64  1  0  0  0  0
 21 22  2  0  0  0  0
 21 65  1  0  0  0  0
 22 23  1  0  0  0  0
 22 66  1  0  0  0  0
 23 24  1  0  0  0  0
 23 38  2  0  0  0  0
 24 25  1  0  0  0  0
 24 67  1  0  0  0  0
 24 68  1  0  0  0  0
 25 26  1  0  0  0  0
 25 69  1  0  0  0  0
 25 70  1  0  0  0  0
 26 27  1  0  0  0  0
 26 71  1  0  0  0  0
 26 72  1  0  0  0  0
 27 28  1  0  0  0  0
 27 73  1  0  0  0  0
 27 74  1  0  0  0  0
 28 29  1  0  0  0  0
 28 75  1  0  0  0  0
 29 34  1  0  0  0  0
 29 30  2  0  0  0  0
 30 31  1  0  0  0  0
 30 76  1  0  0  0  0
 31 32  2  0  0  0  0
 31 77  1  0  0  0  0
 32 33  1  0  0  0  0
 32 78  1  0  0  0  0
 33 34  2  0  0  0  0
 33 35  1  0  0  0  0
 34 79  1  0  0  0  0
 35 36  2  0  0  0  0
 35 37  1  0  0  0  0
 37 80  1  0  0  0  0
 38 81  1  0  0  0  0
M  END
>  <s_m_source_file>
BACE_115.smi

>  <i_m_source_file_index>
1

>  <i_lp_mmshare_version>
42013

>  <i_f3d_flags>
0

>  <s_epik_input>
W0NIM11bQ0hdKFtDSDNdKWMxW2NIXVtjSF1bY0hdYyhbY0hdMSlDKFtDSDNdKShbQ0gzXSlbTkhdW0NIMl1bQ0BASF0oW09IXSlbQ0BIXShbQ0gyXTIpW05IXUMoPU8pYyhbY0hdMylbY0hdW2NIXVtjSF1jM1tOSF1bQ0gyXVtDSDJdW0NIMl1bQ0gyXWMoW2NIXTQpW2NIXVtjSF1bY0hdYzI0

>  <s_epik_cmdline>
J2VwaWtfcHl0aG9uJywgJy1waCcsICc3LjAnLCAnLXRuJywgJzgnLCAnLW1hJywgJzIwMCcsICctaW1hZScsICc8aW5maWxlLm1hZT4nLCAnLW9tYWUnLCAnPG91dGZpbGUubWFlPic=

>  <r_epik_Ionization_Penalty>
2.0446

>  <r_epik_Ionization_Penalty_Charging>
0.0000

>  <r_epik_Ionization_Penalty_Neutral>
2.0446

>  <r_epik_State_Penalty>
2.1759

>  <r_epik_Charging_Adjusted_Penalty>
2.17586

>  <i_epik_Tot_Q>
0

>  <i_epik_Tot_abs_Q>
0

>  <s_lp_Force_Field>
OPLS_2005

>  <r_lp_Energy>
37.9725

>  <b_lp_Chiralities_Consistent>
1

>  <s_lp_Variant>
BACE_115.smi:1-2

>  <chiral flag>
1

>  <version>
0

>  <s_i_glide_gridfile>
second_dock_grid_2

>  <i_i_glide_lignum>
235

>  <i_i_glide_rotatable_bonds>
7

>  <r_i_docking_score>
-1.87556

>  <r_i_glide_ligand_efficiency>
-0.0493567

>  <r_i_glide_ligand_efficiency_sa>
-0.165936

>  <r_i_glide_ligand_efficiency_ln>
-0.404425

>  <r_glide_XP_GScore>
-4.05146

>  <r_i_glide_gscore>
-4.05146

>  <r_i_glide_evdw>
-39.0613

>  <r_i_glide_ecoul>
-8.14664

>  <r_i_glide_energy>
-47.2079

>  <r_i_glide_einternal>
3.06519

>  <r_i_glide_emodel>
-63.2488

>  <r_glide_XP_HBond>
0

>  <i_i_glide_confnum>
1

>  <i_i_glide_posenum>
5

>  <r_i_glide_eff_state_penalty>
2.1759

>  <i_glide_XP_PoseRank>
2

$$$$
