BACE_32.smi:1
 OpenBabel09291822493D
Structure written by MMmdl.
 81 82  0  0  1  0  0  0  0  0999 V2000
   22.4600   45.8924    0.7368 C   0  0  0  0  0  0  0  0  0  0  0  0
   22.6946   44.3845    0.7899 C   0  0  0  0  0  0  0  0  0  0  0  0
   22.7370   43.8791    2.2411 C   0  0  0  0  0  0  0  0  0  0  0  0
   21.7094   43.6617   -0.1033 C   0  0  0  0  0  0  0  0  0  0  0  0
   20.4600   43.2589    0.3827 C   0  0  0  0  0  0  0  0  0  0  0  0
   19.5732   42.5500   -0.4391 C   0  0  0  0  0  0  0  0  0  0  0  0
   19.9531   42.1728   -1.7356 C   0  0  0  0  0  0  0  0  0  0  0  0
   21.2084   42.5586   -2.2382 C   0  0  0  0  0  0  0  0  0  0  0  0
   21.6344   42.0896   -3.6157 C   0  0  0  0  0  0  0  0  0  0  0  0
   22.3500   43.1098   -4.3804 N   0  0  0  0  0  0  0  0  0  0  0  0
   22.2976   42.8946   -5.8260 C   0  0  0  0  0  0  0  0  0  0  0  0
   20.9350   43.3086   -6.4296 C   0  0  1  0  0  0  0  0  0  0  0  0
   20.9890   44.7136   -6.6026 O   0  0  0  0  0  0  0  0  0  0  0  0
   20.6440   42.6166   -7.7870 C   0  0  2  0  0  0  0  0  0  0  0  0
   19.5247   43.3228   -8.5941 C   0  0  0  0  0  0  0  0  0  0  0  0
   19.1315   42.6685   -9.9375 C   0  0  2  0  0  0  0  0  0  0  0  0
   20.3301   42.5440  -10.8999 C   0  0  0  0  0  0  0  0  0  0  0  0
   17.9697   43.4688  -10.5750 C   0  0  0  0  0  0  0  0  0  0  0  0
   17.3277   42.8406  -11.8265 C   0  0  0  0  0  0  0  0  0  0  0  0
   16.6466   41.4876  -11.5672 C   0  0  0  0  0  0  0  0  0  0  0  0
   15.3197   41.5867  -10.7930 C   0  0  0  0  0  0  0  0  0  0  0  0
   14.5706   40.2427  -10.6998 C   0  0  0  0  0  0  0  0  0  0  0  0
   15.4092   39.0988  -10.1058 C   0  0  0  0  0  0  0  0  0  0  0  0
   15.7735   39.3171   -8.6317 C   0  0  0  0  0  0  0  0  0  0  0  0
   16.6713   38.2118   -8.0594 C   0  0  0  0  0  0  0  0  0  0  0  0
   18.1713   38.4234   -8.3560 C   0  0  0  0  0  0  0  0  0  0  0  0
   18.5441   38.3551   -9.5279 O   0  0  0  0  0  0  0  0  0  0  0  0
   19.0425   38.6549   -7.3413 N   0  0  0  0  0  0  0  0  0  0  0  0
   18.6254   38.7955   -5.9472 C   0  0  0  0  0  0  0  0  0  0  0  0
   20.4948   38.7356   -7.5811 C   0  0  0  0  0  0  0  0  0  0  0  0
   21.0569   40.1474   -7.8172 C   0  0  0  0  0  0  0  0  0  0  0  0
   22.2126   40.2611   -8.2230 O   0  0  0  0  0  0  0  0  0  0  0  0
   20.2744   41.2122   -7.5663 N   0  0  0  0  0  0  0  0  0  0  0  0
   22.0599   43.3492   -1.4339 C   0  0  0  0  0  0  0  0  0  0  0  0
   20.1118   43.0970   -5.7467 H   0  0  0  0  0  0  0  0  0  0  0  0
   21.5579   42.6792   -8.3793 H   0  0  0  0  0  0  0  0  0  0  0  0
   18.7817   41.6627   -9.7084 H   0  0  0  0  0  0  0  0  0  0  0  0
   22.4600   46.2444   -0.2926 H   0  0  0  0  0  0  0  0  0  0  0  0
   23.2535   46.4316    1.2534 H   0  0  0  0  0  0  0  0  0  0  0  0
   21.4897   46.1496    1.1600 H   0  0  0  0  0  0  0  0  0  0  0  0
   23.6600   44.1499    0.3613 H   0  0  0  0  0  0  0  0  0  0  0  0
   22.8595   42.7962    2.2838 H   0  0  0  0  0  0  0  0  0  0  0  0
   21.8320   44.1500    2.7848 H   0  0  0  0  0  0  0  0  0  0  0  0
   23.5743   44.3185    2.7826 H   0  0  0  0  0  0  0  0  0  0  0  0
   20.1725   43.4793    1.3964 H   0  0  0  0  0  0  0  0  0  0  0  0
   18.6093   42.2594   -0.0505 H   0  0  0  0  0  0  0  0  0  0  0  0
   19.2761   41.5834   -2.3361 H   0  0  0  0  0  0  0  0  0  0  0  0
   20.7378   41.7644   -4.1438 H   0  0  0  0  0  0  0  0  0  0  0  0
   22.2561   41.2000   -3.5080 H   0  0  0  0  0  0  0  0  0  0  0  0
   23.3269   43.0972   -4.0999 H   0  0  0  0  0  0  0  0  0  0  0  0
   22.5053   41.8448   -6.0331 H   0  0  0  0  0  0  0  0  0  0  0  0
   23.0968   43.4516   -6.3170 H   0  0  0  0  0  0  0  0  0  0  0  0
   20.1463   45.0052   -6.9117 H   0  0  0  0  0  0  0  0  0  0  0  0
   18.6365   43.3910   -7.9634 H   0  0  0  0  0  0  0  0  0  0  0  0
   19.8208   44.3501   -8.8083 H   0  0  0  0  0  0  0  0  0  0  0  0
   20.0529   42.0404  -11.8254 H   0  0  0  0  0  0  0  0  0  0  0  0
   21.1350   41.9499  -10.4689 H   0  0  0  0  0  0  0  0  0  0  0  0
   20.7381   43.5211  -11.1587 H   0  0  0  0  0  0  0  0  0  0  0  0
   17.1898   43.6262   -9.8300 H   0  0  0  0  0  0  0  0  0  0  0  0
   18.3292   44.4649  -10.8345 H   0  0  0  0  0  0  0  0  0  0  0  0
   18.0795   42.7190  -12.6049 H   0  0  0  0  0  0  0  0  0  0  0  0
   16.6006   43.5409  -12.2381 H   0  0  0  0  0  0  0  0  0  0  0  0
   16.4596   40.9838  -12.5078 H   0  0  0  0  0  0  0  0  0  0  0  0
   17.3399   40.8282  -11.0511 H   0  0  0  0  0  0  0  0  0  0  0  0
   14.6656   42.3134  -11.2744 H   0  0  0  0  0  0  0  0  0  0  0  0
   15.5034   41.9778   -9.7925 H   0  0  0  0  0  0  0  0  0  0  0  0
   13.6610   40.3699  -10.1089 H   0  0  0  0  0  0  0  0  0  0  0  0
   14.2390   39.9452  -11.6948 H   0  0  0  0  0  0  0  0  0  0  0  0
   16.3050   38.9470  -10.7046 H   0  0  0  0  0  0  0  0  0  0  0  0
   14.8601   38.1629  -10.1892 H   0  0  0  0  0  0  0  0  0  0  0  0
   16.2609   40.2820   -8.4902 H   0  0  0  0  0  0  0  0  0  0  0  0
   14.8533   39.3622   -8.0462 H   0  0  0  0  0  0  0  0  0  0  0  0
   16.3726   37.2405   -8.4559 H   0  0  0  0  0  0  0  0  0  0  0  0
   16.4565   38.1501   -6.9986 H   0  0  0  0  0  0  0  0  0  0  0  0
   17.6976   39.3499   -5.8572 H   0  0  0  0  0  0  0  0  0  0  0  0
   19.3617   39.3498   -5.3606 H   0  0  0  0  0  0  0  0  0  0  0  0
   18.4600   37.8164   -5.4964 H   0  0  0  0  0  0  0  0  0  0  0  0
   21.0208   38.3090   -6.7261 H   0  0  0  0  0  0  0  0  0  0  0  0
   20.7857   38.1074   -8.4250 H   0  0  0  0  0  0  0  0  0  0  0  0
   19.3476   41.0336   -7.2040 H   0  0  0  0  0  0  0  0  0  0  0  0
   23.0125   43.6515   -1.8298 H   0  0  0  0  0  0  0  0  0  0  0  0
  1  2  1  0  0  0  0
  1 38  1  0  0  0  0
  1 39  1  0  0  0  0
  1 40  1  0  0  0  0
  2  3  1  0  0  0  0
  2  4  1  0  0  0  0
  2 41  1  0  0  0  0
  3 42  1  0  0  0  0
  3 43  1  0  0  0  0
  3 44  1  0  0  0  0
  4 34  1  0  0  0  0
  4  5  2  0  0  0  0
  5  6  1  0  0  0  0
  5 45  1  0  0  0  0
  6  7  2  0  0  0  0
  6 46  1  0  0  0  0
  7  8  1  0  0  0  0
  7 47  1  0  0  0  0
  8  9  1  0  0  0  0
  8 34  2  0  0  0  0
  9 10  1  0  0  0  0
  9 48  1  0  0  0  0
  9 49  1  0  0  0  0
 10 11  1  0  0  0  0
 10 50  1  0  0  0  0
 11 12  1  0  0  0  0
 11 51  1  0  0  0  0
 11 52  1  0  0  0  0
 12 35  1  1  0  0  0
 12 13  1  0  0  0  0
 12 14  1  0  0  0  0
 13 53  1  0  0  0  0
 14 36  1  6  0  0  0
 14 33  1  0  0  0  0
 14 15  1  0  0  0  0
 15 16  1  0  0  0  0
 15 54  1  0  0  0  0
 15 55  1  0  0  0  0
 16 37  1  1  0  0  0
 16 17  1  0  0  0  0
 16 18  1  0  0  0  0
 17 56  1  0  0  0  0
 17 57  1  0  0  0  0
 17 58  1  0  0  0  0
 18 19  1  0  0  0  0
 18 59  1  0  0  0  0
 18 60  1  0  0  0  0
 19 20  1  0  0  0  0
 19 61  1  0  0  0  0
 19 62  1  0  0  0  0
 20 21  1  0  0  0  0
 20 63  1  0  0  0  0
 20 64  1  0  0  0  0
 21 22  1  0  0  0  0
 21 65  1  0  0  0  0
 21 66  1  0  0  0  0
 22 23  1  0  0  0  0
 22 67  1  0  0  0  0
 22 68  1  0  0  0  0
 23 24  1  0  0  0  0
 23 69  1  0  0  0  0
 23 70  1  0  0  0  0
 24 25  1  0  0  0  0
 24 71  1  0  0  0  0
 24 72  1  0  0  0  0
 25 26  1  0  0  0  0
 25 73  1  0  0  0  0
 25 74  1  0  0  0  0
 26 27  2  0  0  0  0
 26 28  1  0  0  0  0
 28 29  1  0  0  0  0
 28 30  1  0  0  0  0
 29 75  1  0  0  0  0
 29 76  1  0  0  0  0
 29 77  1  0  0  0  0
 30 31  1  0  0  0  0
 30 78  1  0  0  0  0
 30 79  1  0  0  0  0
 31 32  2  0  0  0  0
 31 33  1  0  0  0  0
 33 80  1  0  0  0  0
 34 81  1  0  0  0  0
M  END
>  <s_m_source_file>
BACE_32.smi

>  <i_m_source_file_index>
1

>  <i_lp_mmshare_version>
42013

>  <i_f3d_flags>
0

>  <s_epik_input>
W0NIM11bQ0hdKFtDSDNdKWMxW2NIXVtjSF1bY0hdYyhbY0hdMSlbQ0gyXVtOSF1bQ0gyXVtDQEBIXShbT0hdKVtDQEBIXTJbQ0gyXVtDQEhdKFtDSDNdKVtDSDJdW0NIMl1bQ0gyXVtDSDJdW0NIMl1bQ0gyXVtDSDJdW0NIMl1DKD1PKU4oW0NIM10pW0NIMl1DKD1PKVtOSF0y

>  <s_epik_cmdline>
J2VwaWtfcHl0aG9uJywgJy1waCcsICc3LjAnLCAnLXRuJywgJzgnLCAnLW1hJywgJzIwMCcsICctaW1hZScsICc8aW5maWxlLm1hZT4nLCAnLW9tYWUnLCAnPG91dGZpbGUubWFlPic=

>  <r_epik_Ionization_Penalty>
2.0739

>  <r_epik_Ionization_Penalty_Charging>
0.0000

>  <r_epik_Ionization_Penalty_Neutral>
2.0739

>  <r_epik_State_Penalty>
2.2081

>  <r_epik_Charging_Adjusted_Penalty>
2.20813

>  <i_epik_Tot_Q>
0

>  <i_epik_Tot_abs_Q>
0

>  <s_lp_Force_Field>
OPLS_2005

>  <r_lp_Energy>
29.7195

>  <b_lp_Chiralities_Consistent>
1

>  <s_lp_Variant>
BACE_32.smi:1-2

>  <chiral flag>
1

>  <version>
0

>  <s_i_glide_gridfile>
second_dock_grid_2

>  <i_i_glide_lignum>
56

>  <i_i_glide_rotatable_bonds>
7

>  <r_i_docking_score>
-1.51335

>  <r_i_glide_ligand_efficiency>
-0.0445103

>  <r_i_glide_ligand_efficiency_sa>
-0.144196

>  <r_i_glide_ligand_efficiency_ln>
-0.334341

>  <r_glide_XP_GScore>
-3.72145

>  <r_i_glide_gscore>
-3.72145

>  <r_i_glide_evdw>
-39.4861

>  <r_i_glide_ecoul>
-1.85

>  <r_i_glide_energy>
-41.3361

>  <r_i_glide_einternal>
7.45696

>  <r_i_glide_emodel>
-48.5389

>  <r_glide_XP_HBond>
-1.23914

>  <i_i_glide_confnum>
1

>  <i_i_glide_posenum>
4

>  <r_i_glide_eff_state_penalty>
2.2081

>  <i_glide_XP_PoseRank>
1

$$$$
