BACE_85.smi:1
 OpenBabel09291822493D
Structure written by MMmdl.
 88 90  0  0  1  0  0  0  0  0999 V2000
   31.9185   44.5756  -13.9844 C   0  0  0  0  0  0  0  0  0  0  0  0
   31.2272   44.8061  -12.6305 C   0  0  0  0  0  0  0  0  0  0  0  0
   32.2348   44.7888  -11.4690 C   0  0  0  0  0  0  0  0  0  0  0  0
   30.0925   43.8102  -12.4149 C   0  0  0  0  0  0  0  0  0  0  0  0
   28.7540   44.2588  -12.3648 C   0  0  0  0  0  0  0  0  0  0  0  0
   27.6904   43.3453  -12.1799 C   0  0  0  0  0  0  0  0  0  0  0  0
   26.2633   43.8894  -12.1756 C   0  0  0  0  0  0  0  0  0  0  0  0
   25.2004   42.9511  -11.8097 N   0  0  0  0  0  0  0  0  0  0  0  0
   25.1955   42.5455  -10.4068 C   0  0  0  0  0  0  0  0  0  0  0  0
   24.1934   41.4039  -10.1511 C   0  0  1  0  0  0  0  0  0  0  0  0
   24.4526   40.9500   -8.8403 O   0  0  0  0  0  0  0  0  0  0  0  0
   22.6919   41.7826  -10.2868 C   0  0  2  0  0  0  0  0  0  0  0  0
   22.3424   43.1040   -9.5615 C   0  0  0  0  0  0  0  0  0  0  0  0
   20.8406   43.4532   -9.4369 C   0  0  2  0  0  0  0  0  0  0  0  0
   20.1690   43.5853  -10.8151 C   0  0  0  0  0  0  0  0  0  0  0  0
   20.6094   44.7384   -8.6073 C   0  0  0  0  0  0  0  0  0  0  0  0
   21.2128   44.7545   -7.1846 C   0  0  0  0  0  0  0  0  0  0  0  0
   20.7769   43.5691   -6.3097 C   0  0  0  0  0  0  0  0  0  0  0  0
   21.3064   43.6458   -4.8667 C   0  0  0  0  0  0  0  0  0  0  0  0
   20.6963   42.5947   -3.9211 C   0  0  0  0  0  0  0  0  0  0  0  0
   21.4754   41.2690   -3.7705 C   0  0  0  0  0  0  0  0  0  0  0  0
   21.7854   40.4835   -5.0591 C   0  0  0  0  0  0  0  0  0  0  0  0
   20.5428   40.0210   -5.8540 C   0  0  0  0  0  0  0  0  0  0  0  0
   20.8996   39.3317   -7.1878 C   0  0  0  0  0  0  0  0  0  0  0  0
   22.0595   38.9501   -7.3551 O   0  0  0  0  0  0  0  0  0  0  0  0
   19.9751   39.2337   -8.1817 N   0  0  0  0  0  0  0  0  0  0  0  0
   18.5395   39.4845   -7.9523 C   0  0  0  0  0  0  0  0  0  0  0  0
   17.7086   38.2131   -8.2174 C   0  0  0  0  0  0  0  0  0  0  0  0
   18.1514   37.4639   -9.4846 C   0  0  0  0  0  0  0  0  0  0  0  0
   19.0826   38.3213  -10.3482 C   0  0  0  0  0  0  0  0  0  0  0  0
   20.3489   38.7519   -9.5528 C   0  0  1  0  0  0  0  0  0  0  0  0
   21.1438   39.7846  -10.4038 C   0  0  0  0  0  0  0  0  0  0  0  0
   21.0941   39.7484  -11.6342 O   0  0  0  0  0  0  0  0  0  0  0  0
   21.8763   40.6951   -9.7465 N   0  0  0  0  0  0  0  0  0  0  0  0
   27.9859   41.9675  -12.0404 C   0  0  0  0  0  0  0  0  0  0  0  0
   29.3162   41.5173  -12.0998 C   0  0  0  0  0  0  0  0  0  0  0  0
   30.3678   42.4315  -12.2860 C   0  0  0  0  0  0  0  0  0  0  0  0
   24.4127   40.5748  -10.8241 H   0  0  0  0  0  0  0  0  0  0  0  0
   22.4749   41.9123  -11.3487 H   0  0  0  0  0  0  0  0  0  0  0  0
   20.3348   42.6400   -8.9155 H   0  0  0  0  0  0  0  0  0  0  0  0
   20.9819   37.8688   -9.4447 H   0  0  0  0  0  0  0  0  0  0  0  0
   31.2026   44.6451  -14.8046 H   0  0  0  0  0  0  0  0  0  0  0  0
   32.3895   43.5935  -14.0346 H   0  0  0  0  0  0  0  0  0  0  0  0
   32.6903   45.3242  -14.1649 H   0  0  0  0  0  0  0  0  0  0  0  0
   30.7904   45.8045  -12.6596 H   0  0  0  0  0  0  0  0  0  0  0  0
   31.7386   44.9985  -10.5208 H   0  0  0  0  0  0  0  0  0  0  0  0
   33.0084   45.5454  -11.6142 H   0  0  0  0  0  0  0  0  0  0  0  0
   32.7293   43.8215  -11.3767 H   0  0  0  0  0  0  0  0  0  0  0  0
   28.5313   45.3104  -12.4725 H   0  0  0  0  0  0  0  0  0  0  0  0
   26.2315   44.7535  -11.5098 H   0  0  0  0  0  0  0  0  0  0  0  0
   26.0629   44.2774  -13.1754 H   0  0  0  0  0  0  0  0  0  0  0  0
   25.1866   42.1367  -12.4226 H   0  0  0  0  0  0  0  0  0  0  0  0
   26.1832   42.1900  -10.1174 H   0  0  0  0  0  0  0  0  0  0  0  0
   24.9975   43.3970   -9.7586 H   0  0  0  0  0  0  0  0  0  0  0  0
   24.1837   40.0419   -8.7939 H   0  0  0  0  0  0  0  0  0  0  0  0
   22.7754   43.0442   -8.5633 H   0  0  0  0  0  0  0  0  0  0  0  0
   22.8450   43.9361  -10.0580 H   0  0  0  0  0  0  0  0  0  0  0  0
   20.6442   44.3580  -11.4183 H   0  0  0  0  0  0  0  0  0  0  0  0
   19.1155   43.8404  -10.7136 H   0  0  0  0  0  0  0  0  0  0  0  0
   20.2160   42.6532  -11.3755 H   0  0  0  0  0  0  0  0  0  0  0  0
   21.0043   45.5932   -9.1563 H   0  0  0  0  0  0  0  0  0  0  0  0
   19.5370   44.9098   -8.5227 H   0  0  0  0  0  0  0  0  0  0  0  0
   22.3015   44.7934   -7.2348 H   0  0  0  0  0  0  0  0  0  0  0  0
   20.9143   45.6841   -6.6976 H   0  0  0  0  0  0  0  0  0  0  0  0
   19.6870   43.5180   -6.2974 H   0  0  0  0  0  0  0  0  0  0  0  0
   21.1266   42.6493   -6.7691 H   0  0  0  0  0  0  0  0  0  0  0  0
   22.3963   43.5925   -4.8478 H   0  0  0  0  0  0  0  0  0  0  0  0
   21.0478   44.6254   -4.4758 H   0  0  0  0  0  0  0  0  0  0  0  0
   20.6392   43.0388   -2.9255 H   0  0  0  0  0  0  0  0  0  0  0  0
   19.6604   42.4087   -4.1936 H   0  0  0  0  0  0  0  0  0  0  0  0
   22.4210   41.4832   -3.2690 H   0  0  0  0  0  0  0  0  0  0  0  0
   20.9280   40.6194   -3.0871 H   0  0  0  0  0  0  0  0  0  0  0  0
   22.4357   41.0833   -5.6970 H   0  0  0  0  0  0  0  0  0  0  0  0
   22.3744   39.6068   -4.7827 H   0  0  0  0  0  0  0  0  0  0  0  0
   19.9322   39.3502   -5.2534 H   0  0  0  0  0  0  0  0  0  0  0  0
   19.9287   40.8948   -6.0649 H   0  0  0  0  0  0  0  0  0  0  0  0
   18.2871   39.8377   -6.9544 H   0  0  0  0  0  0  0  0  0  0  0  0
   18.2267   40.2835   -8.6254 H   0  0  0  0  0  0  0  0  0  0  0  0
   17.7747   37.5412   -7.3622 H   0  0  0  0  0  0  0  0  0  0  0  0
   16.6553   38.4858   -8.2931 H   0  0  0  0  0  0  0  0  0  0  0  0
   18.6706   36.5501   -9.2037 H   0  0  0  0  0  0  0  0  0  0  0  0
   17.2757   37.1478  -10.0493 H   0  0  0  0  0  0  0  0  0  0  0  0
   19.3741   37.7622  -11.2386 H   0  0  0  0  0  0  0  0  0  0  0  0
   18.5306   39.1897  -10.7119 H   0  0  0  0  0  0  0  0  0  0  0  0
   21.9182   40.5909   -8.7426 H   0  0  0  0  0  0  0  0  0  0  0  0
   27.2031   41.2339  -11.9180 H   0  0  0  0  0  0  0  0  0  0  0  0
   29.5297   40.4634  -12.0150 H   0  0  0  0  0  0  0  0  0  0  0  0
   31.3842   42.0701  -12.3414 H   0  0  0  0  0  0  0  0  0  0  0  0
  1  2  1  0  0  0  0
  1 42  1  0  0  0  0
  1 43  1  0  0  0  0
  1 44  1  0  0  0  0
  2  3  1  0  0  0  0
  2  4  1  0  0  0  0
  2 45  1  0  0  0  0
  3 46  1  0  0  0  0
  3 47  1  0  0  0  0
  3 48  1  0  0  0  0
  4 37  1  0  0  0  0
  4  5  2  0  0  0  0
  5  6  1  0  0  0  0
  5 49  1  0  0  0  0
  6  7  1  0  0  0  0
  6 35  2  0  0  0  0
  7  8  1  0  0  0  0
  7 50  1  0  0  0  0
  7 51  1  0  0  0  0
  8  9  1  0  0  0  0
  8 52  1  0  0  0  0
  9 10  1  0  0  0  0
  9 53  1  0  0  0  0
  9 54  1  0  0  0  0
 10 38  1  6  0  0  0
 10 11  1  0  0  0  0
 10 12  1  0  0  0  0
 11 55  1  0  0  0  0
 12 39  1  6  0  0  0
 12 34  1  0  0  0  0
 12 13  1  0  0  0  0
 13 14  1  0  0  0  0
 13 56  1  0  0  0  0
 13 57  1  0  0  0  0
 14 40  1  1  0  0  0
 14 15  1  0  0  0  0
 14 16  1  0  0  0  0
 15 58  1  0  0  0  0
 15 59  1  0  0  0  0
 15 60  1  0  0  0  0
 16 17  1  0  0  0  0
 16 61  1  0  0  0  0
 16 62  1  0  0  0  0
 17 18  1  0  0  0  0
 17 63  1  0  0  0  0
 17 64  1  0  0  0  0
 18 19  1  0  0  0  0
 18 65  1  0  0  0  0
 18 66  1  0  0  0  0
 19 20  1  0  0  0  0
 19 67  1  0  0  0  0
 19 68  1  0  0  0  0
 20 21  1  0  0  0  0
 20 69  1  0  0  0  0
 20 70  1  0  0  0  0
 21 22  1  0  0  0  0
 21 71  1  0  0  0  0
 21 72  1  0  0  0  0
 22 23  1  0  0  0  0
 22 73  1  0  0  0  0
 22 74  1  0  0  0  0
 23 24  1  0  0  0  0
 23 75  1  0  0  0  0
 23 76  1  0  0  0  0
 24 25  2  0  0  0  0
 24 26  1  0  0  0  0
 26 31  1  0  0  0  0
 26 27  1  0  0  0  0
 27 28  1  0  0  0  0
 27 77  1  0  0  0  0
 27 78  1  0  0  0  0
 28 29  1  0  0  0  0
 28 79  1  0  0  0  0
 28 80  1  0  0  0  0
 29 30  1  0  0  0  0
 29 81  1  0  0  0  0
 29 82  1  0  0  0  0
 30 31  1  0  0  0  0
 30 83  1  0  0  0  0
 30 84  1  0  0  0  0
 31 41  1  1  0  0  0
 31 32  1  0  0  0  0
 32 33  2  0  0  0  0
 32 34  1  0  0  0  0
 34 85  1  0  0  0  0
 35 36  1  0  0  0  0
 35 86  1  0  0  0  0
 36 37  2  0  0  0  0
 36 87  1  0  0  0  0
 37 88  1  0  0  0  0
M  END
>  <s_m_source_file>
BACE_85.smi

>  <i_m_source_file_index>
1

>  <i_lp_mmshare_version>
42013

>  <i_f3d_flags>
0

>  <s_epik_input>
W0NIM11bQ0hdKFtDSDNdKWMxW2NIXWMoW2NIXVtjSF1bY0hdMSlbQ0gyXVtOSF1bQ0gyXVtDQEBIXShbT0hdKVtDQEBIXShbTkhdQyg9TylbQ0BASF0oTjIzKVtDSDJdW0NIMl1bQ0gyXVtDSDJdMylbQ0gyXVtDQEhdKFtDSDNdKVtDSDJdW0NIMl1bQ0gyXVtDSDJdW0NIMl1bQ0gyXVtDSDJdW0NIMl1DMj1P

>  <s_epik_cmdline>
J2VwaWtfcHl0aG9uJywgJy1waCcsICc3LjAnLCAnLXRuJywgJzgnLCAnLW1hJywgJzIwMCcsICctaW1hZScsICc8aW5maWxlLm1hZT4nLCAnLW9tYWUnLCAnPG91dGZpbGUubWFlPic=

>  <r_epik_Ionization_Penalty>
2.0762

>  <r_epik_Ionization_Penalty_Charging>
0.0000

>  <r_epik_Ionization_Penalty_Neutral>
2.0762

>  <r_epik_State_Penalty>
2.2105

>  <r_epik_Charging_Adjusted_Penalty>
2.21053

>  <i_epik_Tot_Q>
0

>  <i_epik_Tot_abs_Q>
0

>  <s_lp_Force_Field>
OPLS_2005

>  <r_lp_Energy>
59.3208

>  <b_lp_Chiralities_Consistent>
1

>  <s_lp_Variant>
BACE_85.smi:1-2

>  <chiral flag>
1

>  <version>
0

>  <s_i_glide_gridfile>
second_dock_grid_2

>  <i_i_glide_lignum>
173

>  <i_i_glide_rotatable_bonds>
7

>  <r_i_docking_score>
-2.89997

>  <r_i_glide_ligand_efficiency>
-0.0783776

>  <r_i_glide_ligand_efficiency_sa>
-0.261172

>  <r_i_glide_ligand_efficiency_ln>
-0.628936

>  <r_glide_XP_GScore>
-5.11047

>  <r_i_glide_gscore>
-5.11047

>  <r_i_glide_evdw>
-39.5636

>  <r_i_glide_ecoul>
-5.4175

>  <r_i_glide_energy>
-44.9811

>  <r_i_glide_einternal>
6.46071

>  <r_i_glide_emodel>
-57.8258

>  <r_glide_XP_HBond>
-0.998709

>  <i_i_glide_confnum>
1

>  <i_i_glide_posenum>
11

>  <r_i_glide_eff_state_penalty>
2.2105

>  <i_glide_XP_PoseRank>
1

$$$$
