BACE_50.smi:1
 OpenBabel09291822493D
Structure written by MMmdl.
 93 96  0  0  1  0  0  0  0  0999 V2000
   19.7895   44.5288   -5.2929 C   0  0  0  0  0  0  0  0  0  0  0  0
   21.2838   44.1662   -5.2581 C   0  0  0  0  0  0  0  0  0  0  0  0
   22.0704   44.8033   -6.4086 C   0  0  0  0  0  0  0  0  0  0  0  0
   21.5401   42.6774   -5.1573 C   0  0  0  0  0  0  0  0  0  0  0  0
   20.7385   41.7370   -5.8402 C   0  0  0  0  0  0  0  0  0  0  0  0
   20.9861   40.3560   -5.6987 C   0  0  0  0  0  0  0  0  0  0  0  0
   20.1289   39.3406   -6.4234 C   0  0  0  0  0  0  0  0  0  0  0  0
   19.9818   39.5975   -7.8533 N   0  0  0  0  0  0  0  0  0  0  0  0
   21.1590   39.3242   -8.6830 C   0  0  0  0  0  0  0  0  0  0  0  0
   22.0672   40.5653   -8.8697 C   0  0  1  0  0  0  0  0  0  0  0  0
   23.0344   40.4452   -7.8486 O   0  0  0  0  0  0  0  0  0  0  0  0
   22.7663   40.5944  -10.2604 C   0  0  2  0  0  0  0  0  0  0  0  0
   24.2483   41.1159  -10.2899 C   0  0  0  0  0  0  0  0  0  0  0  0
   24.6001   42.6170  -10.0804 C   0  0  2  0  0  0  0  0  0  0  0  0
   24.3277   43.1203   -8.6533 C   0  0  0  0  0  0  0  0  0  0  0  0
   24.2243   43.5670  -11.2569 C   0  0  0  0  0  0  0  0  0  0  0  0
   23.4647   44.8715  -10.9302 C   0  0  0  0  0  0  0  0  0  0  0  0
   21.9735   44.6627  -10.6423 C   0  0  0  0  0  0  0  0  0  0  0  0
   21.2276   45.9692  -10.3345 C   0  0  0  0  0  0  0  0  0  0  0  0
   19.7039   45.7807  -10.2410 C   0  0  0  0  0  0  0  0  0  0  0  0
   19.2022   45.2108   -8.8927 C   0  0  0  0  0  0  0  0  0  0  0  0
   17.8789   44.5823   -9.0157 N   0  0  0  0  0  0  0  0  0  0  0  0
   17.7998   43.2530   -8.5579 N   0  0  0  0  0  0  0  0  0  0  0  0
   18.1291   42.1688   -9.3787 C   0  0  0  0  0  0  0  0  0  0  0  0
   19.2929   42.1501  -10.1737 C   0  0  0  0  0  0  0  0  0  0  0  0
   19.5790   41.0063  -10.9412 C   0  0  0  0  0  0  0  0  0  0  0  0
   18.6539   39.9396  -10.9179 C   0  0  0  0  0  0  0  0  0  0  0  0
   17.5295   40.0458  -10.0746 C   0  0  0  0  0  0  0  0  0  0  0  0
   16.5363   38.9136   -9.9420 C   0  0  0  0  0  0  0  0  0  0  0  0
   17.2705   41.1345   -9.3225 N   0  0  0  0  0  0  0  0  0  0  0  0
   20.7679   40.9750  -11.8591 C   0  0  0  0  0  0  0  0  0  0  0  0
   20.5591   40.8888  -13.0674 O   0  0  0  0  0  0  0  0  0  0  0  0
   22.0163   41.1835  -11.3842 N   0  0  0  0  0  0  0  0  0  0  0  0
   16.7882   45.2762   -9.4325 C   0  0  0  0  0  0  0  0  0  0  0  0
   16.7873   46.5078   -9.5047 O   0  0  0  0  0  0  0  0  0  0  0  0
   15.5830   44.5484   -9.9730 C   0  0  0  0  0  0  0  0  0  0  0  0
   15.1133   44.8998  -11.2607 C   0  0  0  0  0  0  0  0  0  0  0  0
   13.9788   44.2749  -11.8087 C   0  0  0  0  0  0  0  0  0  0  0  0
   13.3060   43.2809  -11.0789 C   0  0  0  0  0  0  0  0  0  0  0  0
   12.2216   42.6754  -11.6123 F   0  0  0  0  0  0  0  0  0  0  0  0
   13.7607   42.9255   -9.7964 C   0  0  0  0  0  0  0  0  0  0  0  0
   14.8781   43.5730   -9.2326 C   0  0  0  0  0  0  0  0  0  0  0  0
   22.0529   39.9235   -4.8895 C   0  0  0  0  0  0  0  0  0  0  0  0
   22.8600   40.8554   -4.2258 C   0  0  0  0  0  0  0  0  0  0  0  0
   22.6065   42.2285   -4.3535 C   0  0  0  0  0  0  0  0  0  0  0  0
   21.5213   41.4946   -8.7074 H   0  0  0  0  0  0  0  0  0  0  0  0
   22.8603   39.5451  -10.5269 H   0  0  0  0  0  0  0  0  0  0  0  0
   25.6912   42.6106  -10.1163 H   0  0  0  0  0  0  0  0  0  0  0  0
   19.2641   44.0811   -4.4501 H   0  0  0  0  0  0  0  0  0  0  0  0
   19.3022   44.1803   -6.2031 H   0  0  0  0  0  0  0  0  0  0  0  0
   19.6534   45.6099   -5.2444 H   0  0  0  0  0  0  0  0  0  0  0  0
   21.6883   44.5694   -4.3368 H   0  0  0  0  0  0  0  0  0  0  0  0
   23.1402   44.6361   -6.2848 H   0  0  0  0  0  0  0  0  0  0  0  0
   21.9055   45.8788   -6.4581 H   0  0  0  0  0  0  0  0  0  0  0  0
   21.7772   44.3764   -7.3637 H   0  0  0  0  0  0  0  0  0  0  0  0
   19.9210   42.0572   -6.4692 H   0  0  0  0  0  0  0  0  0  0  0  0
   20.5112   38.3333   -6.2614 H   0  0  0  0  0  0  0  0  0  0  0  0
   19.1437   39.3648   -5.9568 H   0  0  0  0  0  0  0  0  0  0  0  0
   19.1787   39.0837   -8.2009 H   0  0  0  0  0  0  0  0  0  0  0  0
   21.7198   38.4663   -8.3028 H   0  0  0  0  0  0  0  0  0  0  0  0
   20.8097   38.9973   -9.6595 H   0  0  0  0  0  0  0  0  0  0  0  0
   22.5737   40.4730   -7.0187 H   0  0  0  0  0  0  0  0  0  0  0  0
   24.8327   40.5505   -9.5650 H   0  0  0  0  0  0  0  0  0  0  0  0
   24.6996   40.8230  -11.2359 H   0  0  0  0  0  0  0  0  0  0  0  0
   23.2698   43.1113   -8.4197 H   0  0  0  0  0  0  0  0  0  0  0  0
   24.7150   44.1252   -8.4892 H   0  0  0  0  0  0  0  0  0  0  0  0
   24.8205   42.4818   -7.9215 H   0  0  0  0  0  0  0  0  0  0  0  0
   25.1559   43.8648  -11.7385 H   0  0  0  0  0  0  0  0  0  0  0  0
   23.6943   43.0286  -12.0415 H   0  0  0  0  0  0  0  0  0  0  0  0
   23.9435   45.4142  -10.1151 H   0  0  0  0  0  0  0  0  0  0  0  0
   23.5459   45.5304  -11.7950 H   0  0  0  0  0  0  0  0  0  0  0  0
   21.5213   44.1819  -11.5118 H   0  0  0  0  0  0  0  0  0  0  0  0
   21.8532   43.9698   -9.8139 H   0  0  0  0  0  0  0  0  0  0  0  0
   21.6102   46.4224   -9.4185 H   0  0  0  0  0  0  0  0  0  0  0  0
   21.4347   46.6786  -11.1349 H   0  0  0  0  0  0  0  0  0  0  0  0
   19.2302   46.7484  -10.4063 H   0  0  0  0  0  0  0  0  0  0  0  0
   19.3732   45.1491  -11.0676 H   0  0  0  0  0  0  0  0  0  0  0  0
   19.9132   44.4767   -8.5196 H   0  0  0  0  0  0  0  0  0  0  0  0
   19.1699   45.9981   -8.1385 H   0  0  0  0  0  0  0  0  0  0  0  0
   17.0380   43.0610   -7.9215 H   0  0  0  0  0  0  0  0  0  0  0  0
   19.9606   42.9886  -10.1964 H   0  0  0  0  0  0  0  0  0  0  0  0
   18.8129   39.0588  -11.5219 H   0  0  0  0  0  0  0  0  0  0  0  0
   16.8937   38.0126  -10.4399 H   0  0  0  0  0  0  0  0  0  0  0  0
   15.5732   39.1972  -10.3738 H   0  0  0  0  0  0  0  0  0  0  0  0
   16.3787   38.6720   -8.8859 H   0  0  0  0  0  0  0  0  0  0  0  0
   22.6596   41.3740  -12.1437 H   0  0  0  0  0  0  0  0  0  0  0  0
   15.6287   45.6545  -11.8346 H   0  0  0  0  0  0  0  0  0  0  0  0
   13.6304   44.5428  -12.7959 H   0  0  0  0  0  0  0  0  0  0  0  0
   13.2592   42.1507   -9.2399 H   0  0  0  0  0  0  0  0  0  0  0  0
   15.1844   43.2979   -8.2334 H   0  0  0  0  0  0  0  0  0  0  0  0
   22.2810   38.8793   -4.7819 H   0  0  0  0  0  0  0  0  0  0  0  0
   23.6950   40.5074   -3.6431 H   0  0  0  0  0  0  0  0  0  0  0  0
   23.2436   42.9353   -3.8386 H   0  0  0  0  0  0  0  0  0  0  0  0
  1  2  1  0  0  0  0
  1 49  1  0  0  0  0
  1 50  1  0  0  0  0
  1 51  1  0  0  0  0
  2  3  1  0  0  0  0
  2  4  1  0  0  0  0
  2 52  1  0  0  0  0
  3 53  1  0  0  0  0
  3 54  1  0  0  0  0
  3 55  1  0  0  0  0
  4 45  1  0  0  0  0
  4  5  2  0  0  0  0
  5  6  1  0  0  0  0
  5 56  1  0  0  0  0
  6  7  1  0  0  0  0
  6 43  2  0  0  0  0
  7  8  1  0  0  0  0
  7 57  1  0  0  0  0
  7 58  1  0  0  0  0
  8  9  1  0  0  0  0
  8 59  1  0  0  0  0
  9 10  1  0  0  0  0
  9 60  1  0  0  0  0
  9 61  1  0  0  0  0
 10 46  1  1  0  0  0
 10 11  1  0  0  0  0
 10 12  1  0  0  0  0
 11 62  1  0  0  0  0
 12 47  1  6  0  0  0
 12 33  1  0  0  0  0
 12 13  1  0  0  0  0
 13 14  1  0  0  0  0
 13 63  1  0  0  0  0
 13 64  1  0  0  0  0
 14 48  1  6  0  0  0
 14 15  1  0  0  0  0
 14 16  1  0  0  0  0
 15 65  1  0  0  0  0
 15 66  1  0  0  0  0
 15 67  1  0  0  0  0
 16 17  1  0  0  0  0
 16 68  1  0  0  0  0
 16 69  1  0  0  0  0
 17 18  1  0  0  0  0
 17 70  1  0  0  0  0
 17 71  1  0  0  0  0
 18 19  1  0  0  0  0
 18 72  1  0  0  0  0
 18 73  1  0  0  0  0
 19 20  1  0  0  0  0
 19 74  1  0  0  0  0
 19 75  1  0  0  0  0
 20 21  1  0  0  0  0
 20 76  1  0  0  0  0
 20 77  1  0  0  0  0
 21 22  1  0  0  0  0
 21 78  1  0  0  0  0
 21 79  1  0  0  0  0
 22 23  1  0  0  0  0
 22 34  1  0  0  0  0
 23 24  1  0  0  0  0
 23 80  1  0  0  0  0
 24 30  1  0  0  0  0
 24 25  2  0  0  0  0
 25 26  1  0  0  0  0
 25 81  1  0  0  0  0
 26 27  2  0  0  0  0
 26 31  1  0  0  0  0
 27 28  1  0  0  0  0
 27 82  1  0  0  0  0
 28 29  1  0  0  0  0
 28 30  2  0  0  0  0
 29 83  1  0  0  0  0
 29 84  1  0  0  0  0
 29 85  1  0  0  0  0
 31 32  2  0  0  0  0
 31 33  1  0  0  0  0
 33 86  1  0  0  0  0
 34 35  2  0  0  0  0
 34 36  1  0  0  0  0
 36 42  1  0  0  0  0
 36 37  2  0  0  0  0
 37 38  1  0  0  0  0
 37 87  1  0  0  0  0
 38 39  2  0  0  0  0
 38 88  1  0  0  0  0
 39 40  1  0  0  0  0
 39 41  1  0  0  0  0
 41 42  2  0  0  0  0
 41 89  1  0  0  0  0
 42 90  1  0  0  0  0
 43 44  1  0  0  0  0
 43 91  1  0  0  0  0
 44 45  2  0  0  0  0
 44 92  1  0  0  0  0
 45 93  1  0  0  0  0
M  END
>  <s_m_source_file>
BACE_50.smi

>  <i_m_source_file_index>
1

>  <i_lp_mmshare_version>
42013

>  <i_f3d_flags>
0

>  <s_epik_input>
W0NIM11bQ0hdKFtDSDNdKWMxW2NIXWMoW2NIXVtjSF1bY0hdMSlbQ0gyXVtOSF1bQ0gyXVtDQEBIXShbT0hdKVtDQEBIXShbTkhdQyg9TyljKFtjSF1jMjMpW2NIXWMobjMpW0NIM10pW0NIMl1bQ0BIXShbQ0gzXSlbQ0gyXVtDSDJdW0NIMl1bQ0gyXVtDSDJdW0NIMl1OKFtOSF0yKUMoPU8pYzRbY0hdW2NIXWMoRilbY0hdW2NIXTQ=

>  <s_epik_cmdline>
J2VwaWtfcHl0aG9uJywgJy1waCcsICc3LjAnLCAnLXRuJywgJzgnLCAnLW1hJywgJzIwMCcsICctaW1hZScsICc8aW5maWxlLm1hZT4nLCAnLW9tYWUnLCAnPG91dGZpbGUubWFlPic=

>  <r_epik_Ionization_Penalty>
2.1014

>  <r_epik_Ionization_Penalty_Charging>
0.0000

>  <r_epik_Ionization_Penalty_Neutral>
2.1014

>  <r_epik_State_Penalty>
2.2376

>  <r_epik_Charging_Adjusted_Penalty>
2.23761

>  <i_epik_Tot_Q>
0

>  <i_epik_Tot_abs_Q>
0

>  <s_lp_Force_Field>
OPLS_2005

>  <r_lp_Energy>
74.1891

>  <b_lp_Chiralities_Consistent>
1

>  <s_lp_Variant>
BACE_50.smi:1-2

>  <chiral flag>
1

>  <version>
0

>  <s_i_glide_gridfile>
second_dock_grid_2

>  <i_i_glide_lignum>
96

>  <i_i_glide_rotatable_bonds>
9

>  <r_i_docking_score>
-2.27604

>  <r_i_glide_ligand_efficiency>
-0.0505786

>  <r_i_glide_ligand_efficiency_sa>
-0.179903

>  <r_i_glide_ligand_efficiency_ln>
-0.473517

>  <r_glide_XP_GScore>
-4.51364

>  <r_i_glide_gscore>
-4.51364

>  <r_i_glide_evdw>
-44.0245

>  <r_i_glide_ecoul>
-7.1186

>  <r_i_glide_energy>
-51.1431

>  <r_i_glide_einternal>
13.9576

>  <r_i_glide_emodel>
-63.6418

>  <r_glide_XP_HBond>
-0.7

>  <i_i_glide_confnum>
1

>  <i_i_glide_posenum>
11

>  <r_i_glide_eff_state_penalty>
2.2376

>  <i_glide_XP_PoseRank>
1

$$$$
