BACE_60.smi:1
 OpenBabel09291822493D
Structure written by MMmdl.
 95 98  0  0  1  0  0  0  0  0999 V2000
   30.5325   42.3335  -12.3665 C   0  0  0  0  0  0  0  0  0  0  0  0
   29.6098   41.4426  -11.7589 O   0  0  0  0  0  0  0  0  0  0  0  0
   28.2494   41.7871  -11.9955 C   0  0  0  0  0  0  0  0  0  0  0  0
   27.6425   42.7017  -10.9413 C   0  0  0  0  0  0  0  0  0  0  0  0
   28.4227   43.2342   -9.8883 C   0  0  0  0  0  0  0  0  0  0  0  0
   27.8403   44.0525   -8.8985 C   0  0  0  0  0  0  0  0  0  0  0  0
   26.4566   44.3200   -8.9652 C   0  0  0  0  0  0  0  0  0  0  0  0
   25.6628   43.7932   -9.9997 C   0  0  0  0  0  0  0  0  0  0  0  0
   26.2665   43.0067  -11.0036 C   0  0  0  0  0  0  0  0  0  0  0  0
   24.1970   44.0976  -10.0386 C   0  0  0  0  0  0  0  0  0  0  0  0
   23.7173   44.6992  -10.9976 O   0  0  0  0  0  0  0  0  0  0  0  0
   23.4425   43.7392   -8.9837 N   0  0  0  0  0  0  0  0  0  0  0  0
   23.6934   42.6680   -8.0037 C   0  0  1  0  0  0  0  0  0  0  0  0
   22.8023   42.8887   -6.7516 C   0  0  0  0  0  0  0  0  0  0  0  0
   23.3533   43.8240   -5.6469 C   0  0  2  0  0  0  0  0  0  0  0  0
   22.4717   43.6830   -4.3886 C   0  0  0  0  0  0  0  0  0  0  0  0
   23.4737   45.2986   -6.0930 C   0  0  0  0  0  0  0  0  0  0  0  0
   24.2429   46.1981   -5.1045 C   0  0  0  0  0  0  0  0  0  0  0  0
   24.5061   47.6225   -5.6303 C   0  0  0  0  0  0  0  0  0  0  0  0
   25.6150   47.7039   -6.6943 C   0  0  0  0  0  0  0  0  0  0  0  0
   27.0466   47.5721   -6.1299 C   0  0  0  0  0  0  0  0  0  0  0  0
   28.0014   46.8269   -7.0786 C   0  0  0  0  0  0  0  0  0  0  0  0
   28.0937   45.3228   -6.7634 C   0  0  0  0  0  0  0  0  0  0  0  0
   28.6524   44.5557   -7.8716 N   0  0  0  0  0  0  0  0  0  0  0  0
   23.3846   41.2810   -8.6419 C   0  0  2  0  0  0  0  0  0  0  0  0
   24.4211   40.9500   -9.5465 O   0  0  0  0  0  0  0  0  0  0  0  0
   21.9901   41.1991   -9.3131 C   0  0  0  0  0  0  0  0  0  0  0  0
   21.9634   40.2334  -10.4067 N   0  0  0  0  0  0  0  0  0  0  0  0
   20.7729   40.3232  -11.2508 C   0  0  0  0  0  0  0  0  0  0  0  0
   20.9444   39.7811  -12.6771 C   0  0  0  0  0  0  0  0  0  0  0  0
   20.2419   40.9125  -13.2380 O   0  0  0  0  0  0  0  0  0  0  0  0
   20.5536   41.6367  -12.0316 C   0  0  0  0  0  0  0  0  0  0  0  0
   19.5792   39.6840  -10.5142 C   0  0  0  0  0  0  0  0  0  0  0  0
   18.4174   40.4117  -10.1462 C   0  0  0  0  0  0  0  0  0  0  0  0
   17.3380   39.7872   -9.4649 C   0  0  0  0  0  0  0  0  0  0  0  0
   17.4489   38.4139   -9.1541 C   0  0  0  0  0  0  0  0  0  0  0  0
   18.5977   37.6861   -9.4978 C   0  0  0  0  0  0  0  0  0  0  0  0
   19.6562   38.3189  -10.1686 C   0  0  0  0  0  0  0  0  0  0  0  0
   16.0547   40.5415   -9.0602 C   0  0  0  0  0  0  0  0  0  0  0  0
   16.1268   42.0584   -9.3439 C   0  0  0  0  0  0  0  0  0  0  0  0
   14.8620   39.9653   -9.8475 C   0  0  0  0  0  0  0  0  0  0  0  0
   15.7864   40.3713   -7.5486 C   0  0  0  0  0  0  0  0  0  0  0  0
   24.7333   42.6738   -7.6770 H   0  0  0  0  0  0  0  0  0  0  0  0
   24.3513   43.4703   -5.3869 H   0  0  0  0  0  0  0  0  0  0  0  0
   23.4418   40.5101   -7.8730 H   0  0  0  0  0  0  0  0  0  0  0  0
   31.5474   42.0406  -12.1032 H   0  0  0  0  0  0  0  0  0  0  0  0
   30.3807   43.3603  -12.0333 H   0  0  0  0  0  0  0  0  0  0  0  0
   30.4480   42.3025  -13.4538 H   0  0  0  0  0  0  0  0  0  0  0  0
   27.6717   40.8633  -12.0004 H   0  0  0  0  0  0  0  0  0  0  0  0
   28.1141   42.2252  -12.9893 H   0  0  0  0  0  0  0  0  0  0  0  0
   29.4766   43.0089   -9.8300 H   0  0  0  0  0  0  0  0  0  0  0  0
   25.9771   44.9348   -8.2248 H   0  0  0  0  0  0  0  0  0  0  0  0
   25.6627   42.5968  -11.7997 H   0  0  0  0  0  0  0  0  0  0  0  0
   22.4901   44.0664   -9.0177 H   0  0  0  0  0  0  0  0  0  0  0  0
   22.6481   41.9179   -6.2809 H   0  0  0  0  0  0  0  0  0  0  0  0
   21.8049   43.2115   -7.0524 H   0  0  0  0  0  0  0  0  0  0  0  0
   21.4537   44.0214   -4.5712 H   0  0  0  0  0  0  0  0  0  0  0  0
   22.8601   44.2538   -3.5471 H   0  0  0  0  0  0  0  0  0  0  0  0
   22.4194   42.6457   -4.0585 H   0  0  0  0  0  0  0  0  0  0  0  0
   23.9925   45.3337   -7.0452 H   0  0  0  0  0  0  0  0  0  0  0  0
   22.4825   45.7135   -6.2764 H   0  0  0  0  0  0  0  0  0  0  0  0
   25.1905   45.7299   -4.8413 H   0  0  0  0  0  0  0  0  0  0  0  0
   23.6792   46.2772   -4.1771 H   0  0  0  0  0  0  0  0  0  0  0  0
   24.7678   48.2759   -4.7984 H   0  0  0  0  0  0  0  0  0  0  0  0
   23.5786   48.0229   -6.0418 H   0  0  0  0  0  0  0  0  0  0  0  0
   25.4363   46.9575   -7.4647 H   0  0  0  0  0  0  0  0  0  0  0  0
   25.5423   48.6607   -7.2139 H   0  0  0  0  0  0  0  0  0  0  0  0
   27.0447   47.0778   -5.1572 H   0  0  0  0  0  0  0  0  0  0  0  0
   27.4327   48.5742   -5.9383 H   0  0  0  0  0  0  0  0  0  0  0  0
   29.0030   47.2557   -6.9993 H   0  0  0  0  0  0  0  0  0  0  0  0
   27.6957   46.9928   -8.1142 H   0  0  0  0  0  0  0  0  0  0  0  0
   27.1233   44.9215   -6.4719 H   0  0  0  0  0  0  0  0  0  0  0  0
   28.7349   45.1802   -5.8922 H   0  0  0  0  0  0  0  0  0  0  0  0
   29.6394   44.3339   -7.8560 H   0  0  0  0  0  0  0  0  0  0  0  0
   24.4584   40.0014   -9.6394 H   0  0  0  0  0  0  0  0  0  0  0  0
   21.6959   42.1774   -9.6977 H   0  0  0  0  0  0  0  0  0  0  0  0
   21.2391   40.9445   -8.5605 H   0  0  0  0  0  0  0  0  0  0  0  0
   22.7977   40.3643  -10.9822 H   0  0  0  0  0  0  0  0  0  0  0  0
   21.9819   39.7488  -13.0220 H   0  0  0  0  0  0  0  0  0  0  0  0
   20.4605   38.8244  -12.8396 H   0  0  0  0  0  0  0  0  0  0  0  0
   21.4662   42.2249  -12.1532 H   0  0  0  0  0  0  0  0  0  0  0  0
   19.7447   42.2804  -11.6959 H   0  0  0  0  0  0  0  0  0  0  0  0
   18.3611   41.4575  -10.3819 H   0  0  0  0  0  0  0  0  0  0  0  0
   16.6509   37.9033   -8.6416 H   0  0  0  0  0  0  0  0  0  0  0  0
   18.6667   36.6398   -9.2399 H   0  0  0  0  0  0  0  0  0  0  0  0
   20.5391   37.7509  -10.4169 H   0  0  0  0  0  0  0  0  0  0  0  0
   16.9496   42.5282   -8.8026 H   0  0  0  0  0  0  0  0  0  0  0  0
   15.2119   42.5603   -9.0251 H   0  0  0  0  0  0  0  0  0  0  0  0
   16.2506   42.2726  -10.4065 H   0  0  0  0  0  0  0  0  0  0  0  0
   14.6935   38.9123   -9.6191 H   0  0  0  0  0  0  0  0  0  0  0  0
   15.0215   40.0424  -10.9237 H   0  0  0  0  0  0  0  0  0  0  0  0
   13.9345   40.4903   -9.6159 H   0  0  0  0  0  0  0  0  0  0  0  0
   15.6173   39.3328   -7.2642 H   0  0  0  0  0  0  0  0  0  0  0  0
   14.8992   40.9216   -7.2313 H   0  0  0  0  0  0  0  0  0  0  0  0
   16.6193   40.7356   -6.9496 H   0  0  0  0  0  0  0  0  0  0  0  0
  1  2  1  0  0  0  0
  1 46  1  0  0  0  0
  1 47  1  0  0  0  0
  1 48  1  0  0  0  0
  2  3  1  0  0  0  0
  3  4  1  0  0  0  0
  3 49  1  0  0  0  0
  3 50  1  0  0  0  0
  4  9  1  0  0  0  0
  4  5  2  0  0  0  0
  5  6  1  0  0  0  0
  5 51  1  0  0  0  0
  6 24  1  0  0  0  0
  6  7  2  0  0  0  0
  7  8  1  0  0  0  0
  7 52  1  0  0  0  0
  8  9  2  0  0  0  0
  8 10  1  0  0  0  0
  9 53  1  0  0  0  0
 10 11  2  0  0  0  0
 10 12  1  0  0  0  0
 12 13  1  0  0  0  0
 12 54  1  0  0  0  0
 13 43  1  1  0  0  0
 13 14  1  0  0  0  0
 13 25  1  0  0  0  0
 14 15  1  0  0  0  0
 14 55  1  0  0  0  0
 14 56  1  0  0  0  0
 15 44  1  1  0  0  0
 15 16  1  0  0  0  0
 15 17  1  0  0  0  0
 16 57  1  0  0  0  0
 16 58  1  0  0  0  0
 16 59  1  0  0  0  0
 17 18  1  0  0  0  0
 17 60  1  0  0  0  0
 17 61  1  0  0  0  0
 18 19  1  0  0  0  0
 18 62  1  0  0  0  0
 18 63  1  0  0  0  0
 19 20  1  0  0  0  0
 19 64  1  0  0  0  0
 19 65  1  0  0  0  0
 20 21  1  0  0  0  0
 20 66  1  0  0  0  0
 20 67  1  0  0  0  0
 21 22  1  0  0  0  0
 21 68  1  0  0  0  0
 21 69  1  0  0  0  0
 22 23  1  0  0  0  0
 22 70  1  0  0  0  0
 22 71  1  0  0  0  0
 23 24  1  0  0  0  0
 23 72  1  0  0  0  0
 23 73  1  0  0  0  0
 24 74  1  0  0  0  0
 25 45  1  1  0  0  0
 25 26  1  0  0  0  0
 25 27  1  0  0  0  0
 26 75  1  0  0  0  0
 27 28  1  0  0  0  0
 27 76  1  0  0  0  0
 27 77  1  0  0  0  0
 28 29  1  0  0  0  0
 28 78  1  0  0  0  0
 29 32  1  0  0  0  0
 29 30  1  0  0  0  0
 29 33  1  0  0  0  0
 30 31  1  0  0  0  0
 30 79  1  0  0  0  0
 30 80  1  0  0  0  0
 31 32  1  0  0  0  0
 32 81  1  0  0  0  0
 32 82  1  0  0  0  0
 33 38  1  0  0  0  0
 33 34  2  0  0  0  0
 34 35  1  0  0  0  0
 34 83  1  0  0  0  0
 35 36  2  0  0  0  0
 35 39  1  0  0  0  0
 36 37  1  0  0  0  0
 36 84  1  0  0  0  0
 37 38  2  0  0  0  0
 37 85  1  0  0  0  0
 38 86  1  0  0  0  0
 39 40  1  0  0  0  0
 39 41  1  0  0  0  0
 39 42  1  0  0  0  0
 40 87  1  0  0  0  0
 40 88  1  0  0  0  0
 40 89  1  0  0  0  0
 41 90  1  0  0  0  0
 41 91  1  0  0  0  0
 41 92  1  0  0  0  0
 42 93  1  0  0  0  0
 42 94  1  0  0  0  0
 42 95  1  0  0  0  0
M  END
>  <s_m_source_file>
BACE_60.smi

>  <i_m_source_file_index>
1

>  <i_lp_mmshare_version>
42013

>  <i_f3d_flags>
0

>  <s_epik_input>
W2NIXTFbY0hdW2NIXWMoQyhbQ0gzXSkoW0NIM10pW0NIM10pW2NIXWMxQzIoW0NIMl1PW0NIMl0yKVtOSF1bQ0gyXVtDQEBIXShbT0hdKVtDQEBIXShbTkhdQyg9TyljKFtjSF0zKVtjSF1jKFtjSF1jMzQpW0NIMl1PW0NIM10pW0NIMl1bQ0BIXShbQ0gzXSlbQ0gyXVtDSDJdW0NIMl1bQ0gyXVtDSDJdW0NIMl1bQ0gyXVtOSF00

>  <s_epik_cmdline>
J2VwaWtfcHl0aG9uJywgJy1waCcsICc3LjAnLCAnLXRuJywgJzgnLCAnLW1hJywgJzIwMCcsICctaW1hZScsICc8aW5maWxlLm1hZT4nLCAnLW9tYWUnLCAnPG91dGZpbGUubWFlPic=

>  <r_epik_Ionization_Penalty>
0.7362

>  <r_epik_Ionization_Penalty_Charging>
0.0000

>  <r_epik_Ionization_Penalty_Neutral>
0.7362

>  <r_epik_State_Penalty>
0.7613

>  <r_epik_Charging_Adjusted_Penalty>
0.761291

>  <i_epik_Tot_Q>
0

>  <i_epik_Tot_abs_Q>
0

>  <s_lp_Force_Field>
OPLS_2005

>  <r_lp_Energy>
58.7869

>  <b_lp_Chiralities_Consistent>
1

>  <s_lp_Variant>
BACE_60.smi:1-2

>  <chiral flag>
1

>  <version>
0

>  <s_i_glide_gridfile>
second_dock_grid_2

>  <i_i_glide_lignum>
120

>  <i_i_glide_rotatable_bonds>
9

>  <r_i_docking_score>
-3.36216

>  <r_i_glide_ligand_efficiency>
-0.0800515

>  <r_i_glide_ligand_efficiency_sa>
-0.278261

>  <r_i_glide_ligand_efficiency_ln>
-0.709666

>  <r_glide_XP_GScore>
-4.12346

>  <r_i_glide_gscore>
-4.12346

>  <r_i_glide_evdw>
-42.215

>  <r_i_glide_ecoul>
-7.16748

>  <r_i_glide_energy>
-49.3825

>  <r_i_glide_einternal>
9.62144

>  <r_i_glide_emodel>
-64.0817

>  <r_glide_XP_HBond>
-1.35978

>  <i_i_glide_confnum>
1

>  <i_i_glide_posenum>
11

>  <r_i_glide_eff_state_penalty>
0.7613

>  <i_glide_XP_PoseRank>
1

$$$$
