BACE_133.smi:1
 OpenBabel09291822493D
Structure written by MMmdl.
 90 94  0  0  1  0  0  0  0  0999 V2000
   17.2596   47.8931   -7.6404 C   0  0  0  0  0  0  0  0  0  0  0  0
   18.7122   48.1701   -8.0093 C   0  0  0  0  0  0  0  0  0  0  0  0
   19.4748   48.7190   -7.2148 O   0  0  0  0  0  0  0  0  0  0  0  0
   19.1662   47.7350   -9.4028 C   0  0  0  0  0  0  0  0  0  0  0  0
   18.2985   46.7219   -9.8964 O   0  0  0  0  0  0  0  0  0  0  0  0
   18.2844   45.5013   -9.2534 C   0  0  0  0  0  0  0  0  0  0  0  0
   17.5471   44.3692   -9.7031 C   0  0  0  0  0  0  0  0  0  0  0  0
   17.5749   43.1527   -8.9880 C   0  0  0  0  0  0  0  0  0  0  0  0
   18.3404   43.1038   -7.7980 C   0  0  0  0  0  0  0  0  0  0  0  0
   19.1272   44.1829   -7.3668 C   0  0  0  0  0  0  0  0  0  0  0  0
   19.0751   45.3945   -8.0853 C   0  0  0  0  0  0  0  0  0  0  0  0
   19.9733   43.9974   -6.1394 C   0  0  0  0  0  0  0  0  0  0  0  0
   20.0005   44.8401   -5.2422 O   0  0  0  0  0  0  0  0  0  0  0  0
   20.6371   42.8208   -6.1218 N   0  0  0  0  0  0  0  0  0  0  0  0
   21.1608   42.0855   -4.9654 C   0  0  1  0  0  0  0  0  0  0  0  0
   20.7298   40.5762   -5.0367 C   0  0  0  0  0  0  0  0  0  0  0  0
   20.6077   39.8973   -6.4144 C   0  0  0  0  0  0  0  0  0  0  0  0
   19.4557   39.1322   -6.7435 C   0  0  0  0  0  0  0  0  0  0  0  0
   19.3405   38.4854   -8.0021 C   0  0  0  0  0  0  0  0  0  0  0  0
   18.1156   37.6447   -8.3793 C   0  0  0  0  0  0  0  0  0  0  0  0
   16.7285   38.3424   -8.4319 C   0  0  0  0  0  0  0  0  0  0  0  0
   16.5470   39.5457   -9.3952 C   0  0  0  0  0  0  0  0  0  0  0  0
   17.1029   40.8311   -8.7806 C   0  0  0  0  0  0  0  0  0  0  0  0
   16.8794   42.0558   -9.4803 O   0  0  0  0  0  0  0  0  0  0  0  0
   20.4041   38.5899   -8.9241 C   0  0  0  0  0  0  0  0  0  0  0  0
   21.5588   39.3234   -8.6002 C   0  0  0  0  0  0  0  0  0  0  0  0
   21.6621   39.9668   -7.3537 C   0  0  0  0  0  0  0  0  0  0  0  0
   22.6934   42.2800   -4.7252 C   0  0  2  0  0  0  0  0  0  0  0  0
   22.8559   42.7231   -3.3893 O   0  0  0  0  0  0  0  0  0  0  0  0
   23.3948   43.3325   -5.6161 C   0  0  0  0  0  0  0  0  0  0  0  0
   23.4146   42.9093   -7.0211 N   0  0  0  0  0  0  0  0  0  0  0  0
   23.9574   43.8189   -8.0419 C   0  0  0  0  0  0  0  0  0  0  0  0
   24.1858   45.2580   -7.6458 C   0  0  0  0  0  0  0  0  0  0  0  0
   23.0461   44.9010   -8.5699 C   0  0  0  0  0  0  0  0  0  0  0  0
   24.9439   43.1908   -9.0159 C   0  0  0  0  0  0  0  0  0  0  0  0
   26.2071   43.7498   -9.3181 C   0  0  0  0  0  0  0  0  0  0  0  0
   27.0855   43.0969  -10.2256 C   0  0  0  0  0  0  0  0  0  0  0  0
   26.6411   41.8763  -10.7959 C   0  0  0  0  0  0  0  0  0  0  0  0
   25.3775   41.3553  -10.4557 C   0  0  0  0  0  0  0  0  0  0  0  0
   24.5874   42.0200   -9.5888 N   0  3  0  0  0  0  0  0  0  0  0  0
   28.4759   43.6617  -10.5981 C   0  0  0  0  0  0  0  0  0  0  0  0
   29.1994   42.6833  -11.5521 C   0  0  0  0  0  0  0  0  0  0  0  0
   28.3140   45.0308  -11.2983 C   0  0  0  0  0  0  0  0  0  0  0  0
   29.3964   43.8764   -9.3710 C   0  0  0  0  0  0  0  0  0  0  0  0
   20.6686   42.4967   -4.0812 H   0  0  0  0  0  0  0  0  0  0  0  0
   23.2120   41.3296   -4.8344 H   0  0  0  0  0  0  0  0  0  0  0  0
   16.5888   48.4043   -8.3309 H   0  0  0  0  0  0  0  0  0  0  0  0
   17.0464   48.2430   -6.6300 H   0  0  0  0  0  0  0  0  0  0  0  0
   17.0544   46.8234   -7.6852 H   0  0  0  0  0  0  0  0  0  0  0  0
   20.1890   47.3618   -9.3386 H   0  0  0  0  0  0  0  0  0  0  0  0
   19.1533   48.6025  -10.0638 H   0  0  0  0  0  0  0  0  0  0  0  0
   16.9531   44.4049  -10.6038 H   0  0  0  0  0  0  0  0  0  0  0  0
   18.3634   42.2194   -7.1824 H   0  0  0  0  0  0  0  0  0  0  0  0
   19.6536   46.2461   -7.7561 H   0  0  0  0  0  0  0  0  0  0  0  0
   20.5751   42.2733   -6.9682 H   0  0  0  0  0  0  0  0  0  0  0  0
   21.3772   39.9568   -4.4156 H   0  0  0  0  0  0  0  0  0  0  0  0
   19.7490   40.5049   -4.5645 H   0  0  0  0  0  0  0  0  0  0  0  0
   18.6513   39.0402   -6.0282 H   0  0  0  0  0  0  0  0  0  0  0  0
   18.2953   37.1721   -9.3457 H   0  0  0  0  0  0  0  0  0  0  0  0
   18.0606   36.8206   -7.6670 H   0  0  0  0  0  0  0  0  0  0  0  0
   16.0059   37.5805   -8.7266 H   0  0  0  0  0  0  0  0  0  0  0  0
   16.4287   38.6302   -7.4236 H   0  0  0  0  0  0  0  0  0  0  0  0
   15.4821   39.6877   -9.5822 H   0  0  0  0  0  0  0  0  0  0  0  0
   17.0065   39.3440  -10.3634 H   0  0  0  0  0  0  0  0  0  0  0  0
   16.6904   40.9286   -7.7746 H   0  0  0  0  0  0  0  0  0  0  0  0
   18.1780   40.6909   -8.7182 H   0  0  0  0  0  0  0  0  0  0  0  0
   20.3470   38.1007   -9.8856 H   0  0  0  0  0  0  0  0  0  0  0  0
   22.3708   39.3899   -9.3094 H   0  0  0  0  0  0  0  0  0  0  0  0
   22.5656   40.5120   -7.1364 H   0  0  0  0  0  0  0  0  0  0  0  0
   23.4519   43.4564   -3.3871 H   0  0  0  0  0  0  0  0  0  0  0  0
   24.4012   43.5285   -5.2447 H   0  0  0  0  0  0  0  0  0  0  0  0
   22.8458   44.2710   -5.5619 H   0  0  0  0  0  0  0  0  0  0  0  0
   22.5203   42.5270   -7.3113 H   0  0  0  0  0  0  0  0  0  0  0  0
   23.9363   45.5462   -6.6246 H   0  0  0  0  0  0  0  0  0  0  0  0
   25.0450   45.7704   -8.0786 H   0  0  0  0  0  0  0  0  0  0  0  0
   23.1434   45.1747   -9.6205 H   0  0  0  0  0  0  0  0  0  0  0  0
   22.0347   44.9505   -8.1666 H   0  0  0  0  0  0  0  0  0  0  0  0
   26.4738   44.6778   -8.8372 H   0  0  0  0  0  0  0  0  0  0  0  0
   27.2573   41.3272  -11.4920 H   0  0  0  0  0  0  0  0  0  0  0  0
   24.9779   40.4316  -10.8479 H   0  0  0  0  0  0  0  0  0  0  0  0
   30.1954   43.0429  -11.8140 H   0  0  0  0  0  0  0  0  0  0  0  0
   28.6621   42.5415  -12.4899 H   0  0  0  0  0  0  0  0  0  0  0  0
   29.3209   41.7003  -11.0951 H   0  0  0  0  0  0  0  0  0  0  0  0
   29.2810   45.4674  -11.5516 H   0  0  0  0  0  0  0  0  0  0  0  0
   27.7950   45.7452  -10.6577 H   0  0  0  0  0  0  0  0  0  0  0  0
   27.7504   44.9593  -12.2286 H   0  0  0  0  0  0  0  0  0  0  0  0
   30.3672   44.2759   -9.6676 H   0  0  0  0  0  0  0  0  0  0  0  0
   29.5939   42.9441   -8.8400 H   0  0  0  0  0  0  0  0  0  0  0  0
   28.9719   44.5878   -8.6611 H   0  0  0  0  0  0  0  0  0  0  0  0
   23.6779   41.6216   -9.3558 H   0  0  0  0  0  0  0  0  0  0  0  0
  1  2  1  0  0  0  0
  1 47  1  0  0  0  0
  1 48  1  0  0  0  0
  1 49  1  0  0  0  0
  2  3  2  0  0  0  0
  2  4  1  0  0  0  0
  4  5  1  0  0  0  0
  4 50  1  0  0  0  0
  4 51  1  0  0  0  0
  5  6  1  0  0  0  0
  6 11  1  0  0  0  0
  6  7  2  0  0  0  0
  7  8  1  0  0  0  0
  7 52  1  0  0  0  0
  8 24  1  0  0  0  0
  8  9  2  0  0  0  0
  9 10  1  0  0  0  0
  9 53  1  0  0  0  0
 10 11  2  0  0  0  0
 10 12  1  0  0  0  0
 11 54  1  0  0  0  0
 12 13  2  0  0  0  0
 12 14  1  0  0  0  0
 14 15  1  0  0  0  0
 14 55  1  0  0  0  0
 15 45  1  1  0  0  0
 15 16  1  0  0  0  0
 15 28  1  0  0  0  0
 16 17  1  0  0  0  0
 16 56  1  0  0  0  0
 16 57  1  0  0  0  0
 17 27  1  0  0  0  0
 17 18  2  0  0  0  0
 18 19  1  0  0  0  0
 18 58  1  0  0  0  0
 19 20  1  0  0  0  0
 19 25  2  0  0  0  0
 20 21  1  0  0  0  0
 20 59  1  0  0  0  0
 20 60  1  0  0  0  0
 21 22  1  0  0  0  0
 21 61  1  0  0  0  0
 21 62  1  0  0  0  0
 22 23  1  0  0  0  0
 22 63  1  0  0  0  0
 22 64  1  0  0  0  0
 23 24  1  0  0  0  0
 23 65  1  0  0  0  0
 23 66  1  0  0  0  0
 25 26  1  0  0  0  0
 25 67  1  0  0  0  0
 26 27  2  0  0  0  0
 26 68  1  0  0  0  0
 27 69  1  0  0  0  0
 28 46  1  6  0  0  0
 28 29  1  0  0  0  0
 28 30  1  0  0  0  0
 29 70  1  0  0  0  0
 30 31  1  0  0  0  0
 30 71  1  0  0  0  0
 30 72  1  0  0  0  0
 31 32  1  0  0  0  0
 31 73  1  0  0  0  0
 32 34  1  0  0  0  0
 32 33  1  0  0  0  0
 32 35  1  0  0  0  0
 33 34  1  0  0  0  0
 33 74  1  0  0  0  0
 33 75  1  0  0  0  0
 34 76  1  0  0  0  0
 34 77  1  0  0  0  0
 35 40  1  0  0  0  0
 35 36  2  0  0  0  0
 36 37  1  0  0  0  0
 36 78  1  0  0  0  0
 37 38  2  0  0  0  0
 37 41  1  0  0  0  0
 38 39  1  0  0  0  0
 38 79  1  0  0  0  0
 39 40  2  0  0  0  0
 39 80  1  0  0  0  0
 40 90  1  0  0  0  0
 41 42  1  0  0  0  0
 41 43  1  0  0  0  0
 41 44  1  0  0  0  0
 42 81  1  0  0  0  0
 42 82  1  0  0  0  0
 42 83  1  0  0  0  0
 43 84  1  0  0  0  0
 43 85  1  0  0  0  0
 43 86  1  0  0  0  0
 44 87  1  0  0  0  0
 44 88  1  0  0  0  0
 44 89  1  0  0  0  0
M  CHG  1  40   1
M  END
>  <s_m_source_file>
BACE_133.smi

>  <i_m_source_file_index>
1

>  <i_lp_mmshare_version>
42013

>  <i_f3d_flags>
0

>  <s_epik_input>
W0NIM11DKD1PKVtDSDJdT2MoW2NIXWMxMilbY0hdYyhbY0hdMSlDKD1PKVtOSF1bQ0BASF0oW0NIMl1jM1tjSF1jKFtjSF1bY0hdW2NIXTMpW0NIMl1bQ0gyXVtDSDJdW0NIMl1PMilbQ0BIXShbT0hdKVtDSDJdW05IXUM0KFtDSDJdW0NIMl00KWM1W2NIXWMoW2NIXVtjSF1uNSlDKFtDSDNdKShbQ0gzXSlbQ0gzXQ==

>  <s_epik_cmdline>
J2VwaWtfcHl0aG9uJywgJy1waCcsICc3LjAnLCAnLXRuJywgJzgnLCAnLW1hJywgJzIwMCcsICctaW1hZScsICc8aW5maWxlLm1hZT4nLCAnLW9tYWUnLCAnPG91dGZpbGUubWFlPic=

>  <r_epik_Ionization_Penalty>
2.3782

>  <r_epik_Ionization_Penalty_Charging>
2.3782

>  <r_epik_Ionization_Penalty_Neutral>
0.0000

>  <r_epik_State_Penalty>
1.5138

>  <r_epik_Charging_Adjusted_Penalty>
3.89199

>  <i_epik_Tot_Q>
1

>  <i_epik_Tot_abs_Q>
1

>  <s_lp_Force_Field>
OPLS_2005

>  <r_lp_Energy>
58.8467

>  <b_lp_Chiralities_Consistent>
1

>  <s_lp_Variant>
BACE_133.smi:1-2

>  <chiral flag>
1

>  <version>
0

>  <s_i_glide_gridfile>
second_dock_grid_2

>  <i_i_glide_lignum>
273

>  <i_i_glide_rotatable_bonds>
10

>  <r_i_docking_score>
-2.66189

>  <r_i_glide_ligand_efficiency>
-0.0604975

>  <r_i_glide_ligand_efficiency_sa>
-0.213577

>  <r_i_glide_ligand_efficiency_ln>
-0.556393

>  <r_glide_XP_GScore>
-4.17569

>  <r_i_glide_gscore>
-4.17569

>  <r_i_glide_evdw>
-41.5323

>  <r_i_glide_ecoul>
-9.65874

>  <r_i_glide_energy>
-51.191

>  <r_i_glide_einternal>
10.305

>  <r_i_glide_emodel>
-69.2018

>  <r_glide_XP_HBond>
-1.49309

>  <i_i_glide_confnum>
1

>  <i_i_glide_posenum>
10

>  <r_i_glide_eff_state_penalty>
1.5138

>  <i_glide_XP_PoseRank>
1

$$$$
