BACE_112.smi:1
 OpenBabel09291822493D
Structure written by MMmdl.
 85 90  0  0  1  0  0  0  0  0999 V2000
   20.8836   40.0170  -12.6602 C   0  0  0  0  0  0  0  0  0  0  0  0
   21.4700   40.6031  -11.3648 C   0  0  0  0  0  0  0  0  0  0  0  0
   21.2961   42.1255  -11.3110 C   0  0  0  0  0  0  0  0  0  0  0  0
   20.9120   39.9389  -10.1132 C   0  0  0  0  0  0  0  0  0  0  0  0
   19.5203   39.8829   -9.8831 C   0  0  0  0  0  0  0  0  0  0  0  0
   19.0048   39.2696   -8.7220 C   0  0  0  0  0  0  0  0  0  0  0  0
   19.8969   38.7366   -7.7687 C   0  0  0  0  0  0  0  0  0  0  0  0
   21.2860   38.7932   -7.9866 C   0  0  0  0  0  0  0  0  0  0  0  0
   21.7920   39.3851   -9.1591 C   0  0  0  0  0  0  0  0  0  0  0  0
   17.5263   39.1720   -8.5173 C   0  0  0  0  0  0  0  0  0  0  0  0
   16.7088   38.4880   -9.6031 C   0  0  0  0  0  0  0  0  0  0  0  0
   16.9024   37.8152   -8.2691 C   0  0  0  0  0  0  0  0  0  0  0  0
   17.0231   40.3377   -7.7625 N   0  0  0  0  0  0  0  0  0  0  0  0
   15.5875   40.6262   -7.8271 C   0  0  0  0  0  0  0  0  0  0  0  0
   15.2107   41.4200   -9.1035 C   0  0  1  0  0  0  0  0  0  0  0  0
   14.0600   40.8034   -9.6401 O   0  0  0  0  0  0  0  0  0  0  0  0
   14.9886   42.9467   -8.8453 C   0  0  2  0  0  0  0  0  0  0  0  0
   13.5916   43.5356   -9.1970 C   0  0  0  0  0  0  0  0  0  0  0  0
   13.2447   43.7080  -10.6786 C   0  0  0  0  0  0  0  0  0  0  0  0
   13.6964   44.8251  -11.4151 C   0  0  0  0  0  0  0  0  0  0  0  0
   13.2788   45.0405  -12.7547 C   0  0  0  0  0  0  0  0  0  0  0  0
   12.4601   44.0708  -13.3687 C   0  0  0  0  0  0  0  0  0  0  0  0
   12.0134   42.9500  -12.6485 C   0  0  0  0  0  0  0  0  0  0  0  0
   12.3855   42.7837  -11.3029 C   0  0  0  0  0  0  0  0  0  0  0  0
   13.6182   46.1502  -13.5072 O   0  0  0  0  0  0  0  0  0  0  0  0
   14.6708   46.9878  -13.0402 C   0  0  0  0  0  0  0  0  0  0  0  0
   14.8550   48.2556  -13.8635 C   0  0  0  0  0  0  0  0  0  0  0  0
   13.7346   48.8105  -14.5201 C   0  0  0  0  0  0  0  0  0  0  0  0
   13.8582   49.9962  -15.2671 C   0  0  0  0  0  0  0  0  0  0  0  0
   15.1027   50.6434  -15.3577 C   0  0  0  0  0  0  0  0  0  0  0  0
   16.2209   50.1086  -14.6936 C   0  0  0  0  0  0  0  0  0  0  0  0
   16.1088   48.9246  -13.9340 C   0  0  0  0  0  0  0  0  0  0  0  0
   17.3483   48.3873  -13.2312 C   0  0  0  0  0  0  0  0  0  0  0  0
   17.0831   48.1114  -11.8618 O   0  0  0  0  0  0  0  0  0  0  0  0
   17.8230   47.1163  -11.2713 C   0  0  0  0  0  0  0  0  0  0  0  0
   17.1688   46.2598  -10.3731 C   0  0  0  0  0  0  0  0  0  0  0  0
   17.8778   45.1698   -9.8321 C   0  0  0  0  0  0  0  0  0  0  0  0
   19.2481   45.0454  -10.1363 C   0  0  0  0  0  0  0  0  0  0  0  0
   19.8245   45.9762  -11.0268 C   0  0  0  0  0  0  0  0  0  0  0  0
   21.2896   45.8806  -11.3912 C   0  0  0  0  0  0  0  0  0  0  0  0
   19.1258   46.9780  -11.6080 N   0  0  0  0  0  0  0  0  0  0  0  0
   17.1699   44.1745   -8.9686 C   0  0  0  0  0  0  0  0  0  0  0  0
   17.6275   43.8174   -7.8862 O   0  0  0  0  0  0  0  0  0  0  0  0
   16.0146   43.7464   -9.5005 N   0  0  0  0  0  0  0  0  0  0  0  0
   15.9818   41.2874   -9.8642 H   0  0  0  0  0  0  0  0  0  0  0  0
   15.0961   43.1137   -7.7738 H   0  0  0  0  0  0  0  0  0  0  0  0
   21.0810   38.9497  -12.7276 H   0  0  0  0  0  0  0  0  0  0  0  0
   21.3387   40.4820  -13.5351 H   0  0  0  0  0  0  0  0  0  0  0  0
   19.8051   40.1612  -12.7302 H   0  0  0  0  0  0  0  0  0  0  0  0
   22.5411   40.4032  -11.3830 H   0  0  0  0  0  0  0  0  0  0  0  0
   21.7497   42.5408  -10.4098 H   0  0  0  0  0  0  0  0  0  0  0  0
   20.2426   42.4077  -11.3189 H   0  0  0  0  0  0  0  0  0  0  0  0
   21.7809   42.5966  -12.1652 H   0  0  0  0  0  0  0  0  0  0  0  0
   18.8355   40.3059  -10.6031 H   0  0  0  0  0  0  0  0  0  0  0  0
   19.5142   38.2703   -6.8722 H   0  0  0  0  0  0  0  0  0  0  0  0
   21.9631   38.3761   -7.2565 H   0  0  0  0  0  0  0  0  0  0  0  0
   22.8605   39.4185   -9.3162 H   0  0  0  0  0  0  0  0  0  0  0  0
   15.6927   38.7940   -9.8278 H   0  0  0  0  0  0  0  0  0  0  0  0
   17.2475   38.0549  -10.4401 H   0  0  0  0  0  0  0  0  0  0  0  0
   17.5599   36.9485   -8.2272 H   0  0  0  0  0  0  0  0  0  0  0  0
   16.0184   37.7500   -7.6404 H   0  0  0  0  0  0  0  0  0  0  0  0
   17.2626   40.2107   -6.7809 H   0  0  0  0  0  0  0  0  0  0  0  0
   15.0126   39.7030   -7.7509 H   0  0  0  0  0  0  0  0  0  0  0  0
   15.2964   41.1849   -6.9358 H   0  0  0  0  0  0  0  0  0  0  0  0
   13.3761   40.7698   -8.9747 H   0  0  0  0  0  0  0  0  0  0  0  0
   12.8115   42.9503   -8.7170 H   0  0  0  0  0  0  0  0  0  0  0  0
   13.5121   44.5211   -8.7382 H   0  0  0  0  0  0  0  0  0  0  0  0
   14.3376   45.5272  -10.9124 H   0  0  0  0  0  0  0  0  0  0  0  0
   12.1522   44.2008  -14.3960 H   0  0  0  0  0  0  0  0  0  0  0  0
   11.3654   42.2293  -13.1271 H   0  0  0  0  0  0  0  0  0  0  0  0
   12.0092   41.9407  -10.7421 H   0  0  0  0  0  0  0  0  0  0  0  0
   15.5870   46.3971  -13.0256 H   0  0  0  0  0  0  0  0  0  0  0  0
   14.4628   47.3402  -12.0356 H   0  0  0  0  0  0  0  0  0  0  0  0
   12.7702   48.3257  -14.4604 H   0  0  0  0  0  0  0  0  0  0  0  0
   12.9986   50.4078  -15.7746 H   0  0  0  0  0  0  0  0  0  0  0  0
   15.2005   51.5511  -15.9350 H   0  0  0  0  0  0  0  0  0  0  0  0
   17.1710   50.6181  -14.7679 H   0  0  0  0  0  0  0  0  0  0  0  0
   18.1677   49.1054  -13.2938 H   0  0  0  0  0  0  0  0  0  0  0  0
   17.6650   47.4906  -13.7672 H   0  0  0  0  0  0  0  0  0  0  0  0
   16.1317   46.4289  -10.1325 H   0  0  0  0  0  0  0  0  0  0  0  0
   19.8344   44.2420   -9.7118 H   0  0  0  0  0  0  0  0  0  0  0  0
   21.6283   46.7748  -11.9172 H   0  0  0  0  0  0  0  0  0  0  0  0
   21.4624   45.0196  -12.0362 H   0  0  0  0  0  0  0  0  0  0  0  0
   21.8967   45.7647  -10.4931 H   0  0  0  0  0  0  0  0  0  0  0  0
   15.7938   44.0743  -10.4277 H   0  0  0  0  0  0  0  0  0  0  0  0
  1  2  1  0  0  0  0
  1 47  1  0  0  0  0
  1 48  1  0  0  0  0
  1 49  1  0  0  0  0
  2  3  1  0  0  0  0
  2  4  1  0  0  0  0
  2 50  1  0  0  0  0
  3 51  1  0  0  0  0
  3 52  1  0  0  0  0
  3 53  1  0  0  0  0
  4  9  1  0  0  0  0
  4  5  2  0  0  0  0
  5  6  1  0  0  0  0
  5 54  1  0  0  0  0
  6  7  2  0  0  0  0
  6 10  1  0  0  0  0
  7  8  1  0  0  0  0
  7 55  1  0  0  0  0
  8  9  2  0  0  0  0
  8 56  1  0  0  0  0
  9 57  1  0  0  0  0
 10 12  1  0  0  0  0
 10 11  1  0  0  0  0
 10 13  1  0  0  0  0
 11 12  1  0  0  0  0
 11 58  1  0  0  0  0
 11 59  1  0  0  0  0
 12 60  1  0  0  0  0
 12 61  1  0  0  0  0
 13 14  1  0  0  0  0
 13 62  1  0  0  0  0
 14 15  1  0  0  0  0
 14 63  1  0  0  0  0
 14 64  1  0  0  0  0
 15 45  1  6  0  0  0
 15 16  1  0  0  0  0
 15 17  1  0  0  0  0
 16 65  1  0  0  0  0
 17 46  1  1  0  0  0
 17 44  1  0  0  0  0
 17 18  1  0  0  0  0
 18 19  1  0  0  0  0
 18 66  1  0  0  0  0
 18 67  1  0  0  0  0
 19 24  1  0  0  0  0
 19 20  2  0  0  0  0
 20 21  1  0  0  0  0
 20 68  1  0  0  0  0
 21 22  2  0  0  0  0
 21 25  1  0  0  0  0
 22 23  1  0  0  0  0
 22 69  1  0  0  0  0
 23 24  2  0  0  0  0
 23 70  1  0  0  0  0
 24 71  1  0  0  0  0
 25 26  1  0  0  0  0
 26 27  1  0  0  0  0
 26 72  1  0  0  0  0
 26 73  1  0  0  0  0
 27 32  2  0  0  0  0
 27 28  1  0  0  0  0
 28 29  2  0  0  0  0
 28 74  1  0  0  0  0
 29 30  1  0  0  0  0
 29 75  1  0  0  0  0
 30 31  2  0  0  0  0
 30 76  1  0  0  0  0
 31 32  1  0  0  0  0
 31 77  1  0  0  0  0
 32 33  1  0  0  0  0
 33 34  1  0  0  0  0
 33 78  1  0  0  0  0
 33 79  1  0  0  0  0
 34 35  1  0  0  0  0
 35 41  1  0  0  0  0
 35 36  2  0  0  0  0
 36 37  1  0  0  0  0
 36 80  1  0  0  0  0
 37 38  2  0  0  0  0
 37 42  1  0  0  0  0
 38 39  1  0  0  0  0
 38 81  1  0  0  0  0
 39 40  1  0  0  0  0
 39 41  2  0  0  0  0
 40 82  1  0  0  0  0
 40 83  1  0  0  0  0
 40 84  1  0  0  0  0
 42 43  2  0  0  0  0
 42 44  1  0  0  0  0
 44 85  1  0  0  0  0
M  END
>  <s_m_source_file>
BACE_112.smi

>  <i_m_source_file_index>
1

>  <i_lp_mmshare_version>
42013

>  <i_f3d_flags>
0

>  <s_epik_input>
W0NIM11bQ0hdKFtDSDNdKWMxW2NIXWMoW2NIXVtjSF1bY0hdMSlDMihbQ0gyXVtDSDJdMilbTkhdW0NIMl1bQ0BASF0oW09IXSlbQ0BIXShbQ0gyXTMpW05IXUMoPU8pYyhbY0hdYyhuNClbQ0gzXSlbY0hdYzRPW0NIMl1jKFtjSF1bY0hdW2NIXVtjSF01KWM1W0NIMl1PYyhbY0hdYzM2KVtjSF1bY0hdW2NIXTY=

>  <s_epik_cmdline>
J2VwaWtfcHl0aG9uJywgJy1waCcsICc3LjAnLCAnLXRuJywgJzgnLCAnLW1hJywgJzIwMCcsICctaW1hZScsICc8aW5maWxlLm1hZT4nLCAnLW9tYWUnLCAnPG91dGZpbGUubWFlPic=

>  <r_lp_tautomer_probability>
1

>  <r_epik_Ionization_Penalty>
0.3110

>  <r_epik_Ionization_Penalty_Charging>
0.0000

>  <r_epik_Ionization_Penalty_Neutral>
0.3110

>  <r_epik_State_Penalty>
0.3051

>  <r_epik_Charging_Adjusted_Penalty>
0.30506

>  <i_epik_Tot_Q>
0

>  <i_epik_Tot_abs_Q>
0

>  <s_lp_Force_Field>
OPLS_2005

>  <r_lp_Energy>
59.022

>  <b_lp_Chiralities_Consistent>
1

>  <s_lp_Variant>
BACE_112.smi:1-1

>  <chiral flag>
1

>  <version>
0

>  <s_i_glide_gridfile>
second_dock_grid_2

>  <i_i_glide_lignum>
228

>  <i_i_glide_rotatable_bonds>
7

>  <r_i_docking_score>
-3.53971

>  <r_i_glide_ligand_efficiency>
-0.080448

>  <r_i_glide_ligand_efficiency_sa>
-0.28401

>  <r_i_glide_ligand_efficiency_ln>
-0.739877

>  <r_glide_XP_GScore>
-3.84481

>  <r_i_glide_gscore>
-3.84481

>  <r_i_glide_evdw>
-38.227

>  <r_i_glide_ecoul>
-10.5178

>  <r_i_glide_energy>
-48.7448

>  <r_i_glide_einternal>
16.0448

>  <r_i_glide_emodel>
-67.1103

>  <r_glide_XP_HBond>
-1.45736

>  <i_i_glide_confnum>
1

>  <i_i_glide_posenum>
1

>  <r_i_glide_eff_state_penalty>
0.3051

>  <i_glide_XP_PoseRank>
1

$$$$
