BACE_25.smi:1
 OpenBabel09291822493D
Structure written by MMmdl.
 84 85  0  0  1  0  0  0  0  0999 V2000
   23.3813   40.7718   -9.0637 C   0  0  0  0  0  0  0  0  0  0  0  0
   22.8023   39.5483   -8.3359 C   0  0  0  0  0  0  0  0  0  0  0  0
   21.9288   38.6824   -9.2643 C   0  0  0  0  0  0  0  0  0  0  0  0
   22.0756   39.9391   -7.0312 C   0  0  0  0  0  0  0  0  0  0  0  0
   20.7241   40.5977   -7.2524 C   0  0  0  0  0  0  0  0  0  0  0  0
   19.5559   39.8185   -7.3727 C   0  0  0  0  0  0  0  0  0  0  0  0
   18.3225   40.4651   -7.5711 C   0  0  0  0  0  0  0  0  0  0  0  0
   17.0294   39.6744   -7.4957 C   0  0  0  0  0  0  0  0  0  0  0  0
   16.5031   39.3501   -8.8101 N   0  0  0  0  0  0  0  0  0  0  0  0
   15.5884   40.3512   -9.3498 C   0  0  0  0  0  0  0  0  0  0  0  0
   15.6810   40.3823  -10.8855 C   0  0  1  0  0  0  0  0  0  0  0  0
   14.4602   40.8729  -11.4188 O   0  0  0  0  0  0  0  0  0  0  0  0
   16.8443   41.2409  -11.4621 C   0  0  2  0  0  0  0  0  0  0  0  0
   18.2493   40.5972  -11.2982 C   0  0  0  0  0  0  0  0  0  0  0  0
   19.4436   41.3859  -11.8975 C   0  0  2  0  0  0  0  0  0  0  0  0
   20.4982   40.4442  -12.5119 C   0  0  0  0  0  0  0  0  0  0  0  0
   20.0717   42.2807  -10.8093 C   0  0  0  0  0  0  0  0  0  0  0  0
   21.1104   43.2974  -11.2966 C   0  0  0  0  0  0  0  0  0  0  0  0
   21.5896   44.1891  -10.1767 C   0  0  0  0  0  0  0  0  0  0  0  0
   21.5731   45.5294  -10.2289 C   0  0  0  0  0  0  0  0  0  0  0  0
   21.9410   46.4264   -9.0718 C   0  0  0  0  0  0  0  0  0  0  0  0
   20.7803   47.3463   -8.6591 C   0  0  0  0  0  0  0  0  0  0  0  0
   19.5019   46.6137   -8.1973 C   0  0  0  0  0  0  0  0  0  0  0  0
   18.5044   46.2755   -9.3356 C   0  0  0  0  0  0  0  0  0  0  0  0
   17.1505   45.7470   -8.8317 C   0  0  0  0  0  0  0  0  0  0  0  0
   16.8970   45.8861   -7.6400 O   0  0  0  0  0  0  0  0  0  0  0  0
   16.2563   45.1496   -9.6634 N   0  0  0  0  0  0  0  0  0  0  0  0
   15.0901   44.5000   -9.0363 C   0  0  0  0  0  0  0  0  0  0  0  0
   16.3222   45.0606  -11.1414 C   0  0  1  0  0  0  0  0  0  0  0  0
   16.8186   46.3221  -11.8841 C   0  0  0  0  0  0  0  0  0  0  0  0
   16.8093   43.7266  -11.7327 C   0  0  0  0  0  0  0  0  0  0  0  0
   17.1586   43.6944  -12.9120 O   0  0  0  0  0  0  0  0  0  0  0  0
   16.7626   42.6221  -10.9661 N   0  0  0  0  0  0  0  0  0  0  0  0
   18.3157   41.8752   -7.6451 C   0  0  0  0  0  0  0  0  0  0  0  0
   19.4283   42.6339   -7.5393 N   0  0  0  0  0  0  0  0  0  0  0  0
   20.6000   42.0001   -7.3273 C   0  0  0  0  0  0  0  0  0  0  0  0
   15.7697   39.3561  -11.2402 H   0  0  0  0  0  0  0  0  0  0  0  0
   16.6659   41.2577  -12.5275 H   0  0  0  0  0  0  0  0  0  0  0  0
   19.0774   42.0076  -12.7117 H   0  0  0  0  0  0  0  0  0  0  0  0
   15.2726   45.0494  -11.4374 H   0  0  0  0  0  0  0  0  0  0  0  0
   22.6116   41.4850   -9.3346 H   0  0  0  0  0  0  0  0  0  0  0  0
   23.8928   40.4891   -9.9822 H   0  0  0  0  0  0  0  0  0  0  0  0
   24.1038   41.2891   -8.4346 H   0  0  0  0  0  0  0  0  0  0  0  0
   23.6630   38.9502   -8.0397 H   0  0  0  0  0  0  0  0  0  0  0  0
   21.0388   39.2158   -9.5905 H   0  0  0  0  0  0  0  0  0  0  0  0
   21.6024   37.7724   -8.7640 H   0  0  0  0  0  0  0  0  0  0  0  0
   22.4598   38.3810  -10.1633 H   0  0  0  0  0  0  0  0  0  0  0  0
   21.9200   39.0467   -6.4249 H   0  0  0  0  0  0  0  0  0  0  0  0
   22.7071   40.5951   -6.4308 H   0  0  0  0  0  0  0  0  0  0  0  0
   19.6022   38.7432   -7.2818 H   0  0  0  0  0  0  0  0  0  0  0  0
   17.2344   38.7504   -6.9533 H   0  0  0  0  0  0  0  0  0  0  0  0
   16.2919   40.2093   -6.8936 H   0  0  0  0  0  0  0  0  0  0  0  0
   16.0441   38.4439   -8.7661 H   0  0  0  0  0  0  0  0  0  0  0  0
   14.5737   40.1023   -9.0320 H   0  0  0  0  0  0  0  0  0  0  0  0
   15.7865   41.3389   -8.9377 H   0  0  0  0  0  0  0  0  0  0  0  0
   13.7471   40.4149  -10.9878 H   0  0  0  0  0  0  0  0  0  0  0  0
   18.4543   40.3960  -10.2511 H   0  0  0  0  0  0  0  0  0  0  0  0
   18.2072   39.6100  -11.7552 H   0  0  0  0  0  0  0  0  0  0  0  0
   20.9809   39.8307  -11.7544 H   0  0  0  0  0  0  0  0  0  0  0  0
   21.2838   40.9998  -13.0255 H   0  0  0  0  0  0  0  0  0  0  0  0
   20.0609   39.7666  -13.2432 H   0  0  0  0  0  0  0  0  0  0  0  0
   19.2890   42.8351  -10.2962 H   0  0  0  0  0  0  0  0  0  0  0  0
   20.5163   41.6373  -10.0558 H   0  0  0  0  0  0  0  0  0  0  0  0
   21.9704   42.8048  -11.7510 H   0  0  0  0  0  0  0  0  0  0  0  0
   20.6505   43.9396  -12.0396 H   0  0  0  0  0  0  0  0  0  0  0  0
   21.9291   43.6963   -9.2783 H   0  0  0  0  0  0  0  0  0  0  0  0
   21.2279   46.0259  -11.1242 H   0  0  0  0  0  0  0  0  0  0  0  0
   22.2577   45.8210   -8.2216 H   0  0  0  0  0  0  0  0  0  0  0  0
   22.8015   47.0281   -9.3654 H   0  0  0  0  0  0  0  0  0  0  0  0
   21.1348   47.9656   -7.8341 H   0  0  0  0  0  0  0  0  0  0  0  0
   20.5463   48.0420   -9.4658 H   0  0  0  0  0  0  0  0  0  0  0  0
   19.7649   45.7109   -7.6436 H   0  0  0  0  0  0  0  0  0  0  0  0
   19.0041   47.2681   -7.4799 H   0  0  0  0  0  0  0  0  0  0  0  0
   18.3222   47.1902   -9.8968 H   0  0  0  0  0  0  0  0  0  0  0  0
   18.9322   45.5385  -10.0123 H   0  0  0  0  0  0  0  0  0  0  0  0
   15.4063   43.7814   -8.2770 H   0  0  0  0  0  0  0  0  0  0  0  0
   14.4661   43.9517   -9.7444 H   0  0  0  0  0  0  0  0  0  0  0  0
   14.4594   45.2407   -8.5453 H   0  0  0  0  0  0  0  0  0  0  0  0
   16.4597   46.3260  -12.9136 H   0  0  0  0  0  0  0  0  0  0  0  0
   17.9060   46.3664  -11.9445 H   0  0  0  0  0  0  0  0  0  0  0  0
   16.4513   47.2369  -11.4174 H   0  0  0  0  0  0  0  0  0  0  0  0
   16.4875   42.7363  -10.0017 H   0  0  0  0  0  0  0  0  0  0  0  0
   17.3891   42.4186   -7.7492 H   0  0  0  0  0  0  0  0  0  0  0  0
   21.4709   42.6313   -7.2295 H   0  0  0  0  0  0  0  0  0  0  0  0
  1  2  1  0  0  0  0
  1 41  1  0  0  0  0
  1 42  1  0  0  0  0
  1 43  1  0  0  0  0
  2  3  1  0  0  0  0
  2  4  1  0  0  0  0
  2 44  1  0  0  0  0
  3 45  1  0  0  0  0
  3 46  1  0  0  0  0
  3 47  1  0  0  0  0
  4  5  1  0  0  0  0
  4 48  1  0  0  0  0
  4 49  1  0  0  0  0
  5 36  1  0  0  0  0
  5  6  2  0  0  0  0
  6  7  1  0  0  0  0
  6 50  1  0  0  0  0
  7  8  1  0  0  0  0
  7 34  2  0  0  0  0
  8  9  1  0  0  0  0
  8 51  1  0  0  0  0
  8 52  1  0  0  0  0
  9 10  1  0  0  0  0
  9 53  1  0  0  0  0
 10 11  1  0  0  0  0
 10 54  1  0  0  0  0
 10 55  1  0  0  0  0
 11 37  1  6  0  0  0
 11 12  1  0  0  0  0
 11 13  1  0  0  0  0
 12 56  1  0  0  0  0
 13 38  1  6  0  0  0
 13 33  1  0  0  0  0
 13 14  1  0  0  0  0
 14 15  1  0  0  0  0
 14 57  1  0  0  0  0
 14 58  1  0  0  0  0
 15 39  1  6  0  0  0
 15 16  1  0  0  0  0
 15 17  1  0  0  0  0
 16 59  1  0  0  0  0
 16 60  1  0  0  0  0
 16 61  1  0  0  0  0
 17 18  1  0  0  0  0
 17 62  1  0  0  0  0
 17 63  1  0  0  0  0
 18 19  1  0  0  0  0
 18 64  1  0  0  0  0
 18 65  1  0  0  0  0
 19 20  2  0  0  0  0
 19 66  1  0  0  0  0
 20 21  1  0  0  0  0
 20 67  1  0  0  0  0
 21 22  1  0  0  0  0
 21 68  1  0  0  0  0
 21 69  1  0  0  0  0
 22 23  1  0  0  0  0
 22 70  1  0  0  0  0
 22 71  1  0  0  0  0
 23 24  1  0  0  0  0
 23 72  1  0  0  0  0
 23 73  1  0  0  0  0
 24 25  1  0  0  0  0
 24 74  1  0  0  0  0
 24 75  1  0  0  0  0
 25 26  2  0  0  0  0
 25 27  1  0  0  0  0
 27 28  1  0  0  0  0
 27 29  1  0  0  0  0
 28 76  1  0  0  0  0
 28 77  1  0  0  0  0
 28 78  1  0  0  0  0
 29 40  1  6  0  0  0
 29 30  1  0  0  0  0
 29 31  1  0  0  0  0
 30 79  1  0  0  0  0
 30 80  1  0  0  0  0
 30 81  1  0  0  0  0
 31 32  2  0  0  0  0
 31 33  1  0  0  0  0
 33 82  1  0  0  0  0
 34 35  1  0  0  0  0
 34 83  1  0  0  0  0
 35 36  2  0  0  0  0
 36 84  1  0  0  0  0
M  END
>  <s_m_source_file>
BACE_25.smi

>  <i_m_source_file_index>
1

>  <i_lp_mmshare_version>
42013

>  <i_f3d_flags>
0

>  <s_epik_input>
W0NIM11bQ0hdKFtDSDNdKVtDSDJdYzFbY0hdYyhbY0hdbltjSF0xKVtDSDJdW05IXVtDSDJdW0NAQEhdKFtPSF0pW0NAQEhdMltDSDJdW0NASF0oW0NIM10pW0NIMl1bQ0gyXS9bQ0hdPVtDSF0vW0NIMl1bQ0gyXVtDSDJdW0NIMl1DKD1PKU4oW0NIM10pW0NAQEhdKFtDSDNdKUMoPU8pW05IXTI=

>  <s_epik_cmdline>
J2VwaWtfcHl0aG9uJywgJy1waCcsICc3LjAnLCAnLXRuJywgJzgnLCAnLW1hJywgJzIwMCcsICctaW1hZScsICc8aW5maWxlLm1hZT4nLCAnLW9tYWUnLCAnPG91dGZpbGUubWFlPic=

>  <r_epik_Ionization_Penalty>
1.6331

>  <r_epik_Ionization_Penalty_Charging>
0.0000

>  <r_epik_Ionization_Penalty_Neutral>
1.6331

>  <r_epik_State_Penalty>
1.7136

>  <r_epik_Charging_Adjusted_Penalty>
1.71364

>  <i_epik_Tot_Q>
0

>  <i_epik_Tot_abs_Q>
0

>  <s_lp_Force_Field>
OPLS_2005

>  <r_lp_Energy>
40.4574

>  <b_lp_Chiralities_Consistent>
1

>  <s_lp_Variant>
BACE_25.smi:1-2

>  <chiral flag>
1

>  <version>
0

>  <s_i_glide_gridfile>
second_dock_grid_2

>  <i_i_glide_lignum>
42

>  <i_i_glide_rotatable_bonds>
8

>  <r_i_docking_score>
-1.52582

>  <r_i_glide_ligand_efficiency>
-0.0423838

>  <r_i_glide_ligand_efficiency_sa>
-0.139948

>  <r_i_glide_ligand_efficiency_ln>
-0.332892

>  <r_glide_XP_GScore>
-3.23942

>  <r_i_glide_gscore>
-3.23942

>  <r_i_glide_evdw>
-31.1872

>  <r_i_glide_ecoul>
-13.215

>  <r_i_glide_energy>
-44.4022

>  <r_i_glide_einternal>
8.38686

>  <r_i_glide_emodel>
-60.3767

>  <r_glide_XP_HBond>
-0.964322

>  <i_i_glide_confnum>
1

>  <i_i_glide_posenum>
117

>  <r_i_glide_eff_state_penalty>
1.7136

>  <i_glide_XP_PoseRank>
1

$$$$
