BACE_94.smi:1
 OpenBabel09291822493D
Structure written by MMmdl.
 76 78  0  0  1  0  0  0  0  0999 V2000
   21.2305   39.1930  -10.4142 C   0  0  0  0  0  0  0  0  0  0  0  0
   19.9356   39.1382  -11.2488 C   0  0  0  0  0  0  0  0  0  0  0  0
   19.7203   40.5042  -11.9318 C   0  0  0  0  0  0  0  0  0  0  0  0
   18.7398   38.6349  -10.4345 C   0  0  0  0  0  0  0  0  0  0  0  0
   18.8597   37.4794   -9.6341 C   0  0  0  0  0  0  0  0  0  0  0  0
   17.7877   37.0218   -8.8420 C   0  0  0  0  0  0  0  0  0  0  0  0
   16.5844   37.7423   -8.8076 C   0  0  0  0  0  0  0  0  0  0  0  0
   16.4517   38.8982   -9.5925 C   0  0  0  0  0  0  0  0  0  0  0  0
   15.2692   39.8178   -9.3931 C   0  0  0  0  0  0  0  0  0  0  0  0
   15.5093   40.8060   -8.3353 N   0  0  0  0  0  0  0  0  0  0  0  0
   16.8910   41.2835   -8.1697 C   0  0  0  0  0  0  0  0  0  0  0  0
   16.9706   42.6878   -7.5778 C   0  0  1  0  0  0  0  0  0  0  0  0
   18.3131   42.9486   -7.2398 O   0  0  0  0  0  0  0  0  0  0  0  0
   16.4482   43.8137   -8.5177 C   0  0  2  0  0  0  0  0  0  0  0  0
   14.8868   43.8903   -8.5491 C   0  0  0  0  0  0  0  0  0  0  0  0
   14.2163   43.8965   -9.9266 C   0  0  0  0  0  0  0  0  0  0  0  0
   13.3096   42.8852  -10.3034 C   0  0  0  0  0  0  0  0  0  0  0  0
   12.6547   42.9521  -11.5473 C   0  0  0  0  0  0  0  0  0  0  0  0
   12.8926   44.0344  -12.4168 C   0  0  0  0  0  0  0  0  0  0  0  0
   13.8049   45.0495  -12.0667 C   0  0  0  0  0  0  0  0  0  0  0  0
   14.4763   44.9498  -10.8242 C   0  0  0  0  0  0  0  0  0  0  0  0
   13.9668   46.0965  -12.9547 O   0  0  0  0  0  0  0  0  0  0  0  0
   14.9689   47.0757  -12.6943 C   0  0  0  0  0  0  0  0  0  0  0  0
   16.3444   46.5928  -13.1768 C   0  0  0  0  0  0  0  0  0  0  0  0
   17.5125   47.0669  -12.3034 C   0  0  0  0  0  0  0  0  0  0  0  0
   18.8702   46.6118  -12.8638 C   0  0  0  0  0  0  0  0  0  0  0  0
   20.2508   46.8273  -11.6568 S   0  0  0  0  0  0  0  0  0  0  0  0
   21.4837   46.9899  -12.4401 O   0  0  0  0  0  0  0  0  0  0  0  0
   19.8600   47.8781  -10.7064 O   0  0  0  0  0  0  0  0  0  0  0  0
   20.4071   45.1858  -10.7828 C   0  0  0  0  0  0  0  0  0  0  0  0
   19.2800   44.7607   -9.7932 C   0  0  1  0  0  0  0  0  0  0  0  0
   18.9234   45.8837   -8.7966 C   0  0  0  0  0  0  0  0  0  0  0  0
   18.0975   44.0475  -10.5045 C   0  0  0  0  0  0  0  0  0  0  0  0
   18.1985   43.7588  -11.6952 O   0  0  0  0  0  0  0  0  0  0  0  0
   16.9756   43.6537   -9.8784 N   0  0  0  0  0  0  0  0  0  0  0  0
   17.5003   39.3077  -10.4400 C   0  0  0  0  0  0  0  0  0  0  0  0
   16.4610   42.6733   -6.6256 H   0  0  0  0  0  0  0  0  0  0  0  0
   16.7412   44.7758   -8.1139 H   0  0  0  0  0  0  0  0  0  0  0  0
   19.7334   43.9671   -9.1999 H   0  0  0  0  0  0  0  0  0  0  0  0
   21.5355   38.2149  -10.0427 H   0  0  0  0  0  0  0  0  0  0  0  0
   21.1093   39.8502   -9.5532 H   0  0  0  0  0  0  0  0  0  0  0  0
   22.0606   39.5764  -11.0066 H   0  0  0  0  0  0  0  0  0  0  0  0
   20.0681   38.4047  -12.0405 H   0  0  0  0  0  0  0  0  0  0  0  0
   18.8794   40.4886  -12.6248 H   0  0  0  0  0  0  0  0  0  0  0  0
   20.5980   40.7943  -12.5091 H   0  0  0  0  0  0  0  0  0  0  0  0
   19.5391   41.2896  -11.1977 H   0  0  0  0  0  0  0  0  0  0  0  0
   19.7948   36.9513   -9.5867 H   0  0  0  0  0  0  0  0  0  0  0  0
   17.9038   36.1553   -8.2094 H   0  0  0  0  0  0  0  0  0  0  0  0
   15.7984   37.4463   -8.1277 H   0  0  0  0  0  0  0  0  0  0  0  0
   15.0777   40.3288  -10.3372 H   0  0  0  0  0  0  0  0  0  0  0  0
   14.3703   39.2380   -9.1737 H   0  0  0  0  0  0  0  0  0  0  0  0
   15.1117   40.4988   -7.4486 H   0  0  0  0  0  0  0  0  0  0  0  0
   17.4398   40.5795   -7.5409 H   0  0  0  0  0  0  0  0  0  0  0  0
   17.4178   41.3269   -9.1164 H   0  0  0  0  0  0  0  0  0  0  0  0
   18.5337   42.3507   -6.5344 H   0  0  0  0  0  0  0  0  0  0  0  0
   14.4421   43.0980   -7.9489 H   0  0  0  0  0  0  0  0  0  0  0  0
   14.5776   44.8039   -8.0402 H   0  0  0  0  0  0  0  0  0  0  0  0
   13.1030   42.0570   -9.6402 H   0  0  0  0  0  0  0  0  0  0  0  0
   11.9596   42.1759  -11.8307 H   0  0  0  0  0  0  0  0  0  0  0  0
   12.3781   44.0784  -13.3652 H   0  0  0  0  0  0  0  0  0  0  0  0
   15.1886   45.6913  -10.5013 H   0  0  0  0  0  0  0  0  0  0  0  0
   14.7030   47.9789  -13.2434 H   0  0  0  0  0  0  0  0  0  0  0  0
   14.9826   47.3804  -11.6503 H   0  0  0  0  0  0  0  0  0  0  0  0
   16.3643   45.5033  -13.2210 H   0  0  0  0  0  0  0  0  0  0  0  0
   16.4886   46.9500  -14.1961 H   0  0  0  0  0  0  0  0  0  0  0  0
   17.4977   48.1536  -12.2119 H   0  0  0  0  0  0  0  0  0  0  0  0
   17.3748   46.6759  -11.2981 H   0  0  0  0  0  0  0  0  0  0  0  0
   18.8591   45.5757  -13.1917 H   0  0  0  0  0  0  0  0  0  0  0  0
   19.1187   47.2090  -13.7399 H   0  0  0  0  0  0  0  0  0  0  0  0
   20.5866   44.4246  -11.5425 H   0  0  0  0  0  0  0  0  0  0  0  0
   21.3412   45.2455  -10.2240 H   0  0  0  0  0  0  0  0  0  0  0  0
   18.6922   45.4918   -7.8093 H   0  0  0  0  0  0  0  0  0  0  0  0
   18.0879   46.4969   -9.1323 H   0  0  0  0  0  0  0  0  0  0  0  0
   19.7767   46.5384   -8.6240 H   0  0  0  0  0  0  0  0  0  0  0  0
   16.3382   43.1516  -10.4784 H   0  0  0  0  0  0  0  0  0  0  0  0
   17.3567   40.2021  -11.0258 H   0  0  0  0  0  0  0  0  0  0  0  0
  1  2  1  0  0  0  0
  1 40  1  0  0  0  0
  1 41  1  0  0  0  0
  1 42  1  0  0  0  0
  2  3  1  0  0  0  0
  2  4  1  0  0  0  0
  2 43  1  0  0  0  0
  3 44  1  0  0  0  0
  3 45  1  0  0  0  0
  3 46  1  0  0  0  0
  4 36  1  0  0  0  0
  4  5  2  0  0  0  0
  5  6  1  0  0  0  0
  5 47  1  0  0  0  0
  6  7  2  0  0  0  0
  6 48  1  0  0  0  0
  7  8  1  0  0  0  0
  7 49  1  0  0  0  0
  8  9  1  0  0  0  0
  8 36  2  0  0  0  0
  9 10  1  0  0  0  0
  9 50  1  0  0  0  0
  9 51  1  0  0  0  0
 10 11  1  0  0  0  0
 10 52  1  0  0  0  0
 11 12  1  0  0  0  0
 11 53  1  0  0  0  0
 11 54  1  0  0  0  0
 12 37  1  1  0  0  0
 12 13  1  0  0  0  0
 12 14  1  0  0  0  0
 13 55  1  0  0  0  0
 14 38  1  1  0  0  0
 14 35  1  0  0  0  0
 14 15  1  0  0  0  0
 15 16  1  0  0  0  0
 15 56  1  0  0  0  0
 15 57  1  0  0  0  0
 16 21  1  0  0  0  0
 16 17  2  0  0  0  0
 17 18  1  0  0  0  0
 17 58  1  0  0  0  0
 18 19  2  0  0  0  0
 18 59  1  0  0  0  0
 19 20  1  0  0  0  0
 19 60  1  0  0  0  0
 20 21  2  0  0  0  0
 20 22  1  0  0  0  0
 21 61  1  0  0  0  0
 22 23  1  0  0  0  0
 23 24  1  0  0  0  0
 23 62  1  0  0  0  0
 23 63  1  0  0  0  0
 24 25  1  0  0  0  0
 24 64  1  0  0  0  0
 24 65  1  0  0  0  0
 25 26  1  0  0  0  0
 25 66  1  0  0  0  0
 25 67  1  0  0  0  0
 26 27  1  0  0  0  0
 26 68  1  0  0  0  0
 26 69  1  0  0  0  0
 27 28  2  0  0  0  0
 27 29  2  0  0  0  0
 27 30  1  0  0  0  0
 30 31  1  0  0  0  0
 30 70  1  0  0  0  0
 30 71  1  0  0  0  0
 31 39  1  1  0  0  0
 31 32  1  0  0  0  0
 31 33  1  0  0  0  0
 32 72  1  0  0  0  0
 32 73  1  0  0  0  0
 32 74  1  0  0  0  0
 33 34  2  0  0  0  0
 33 35  1  0  0  0  0
 35 75  1  0  0  0  0
 36 76  1  0  0  0  0
M  END
>  <s_m_source_file>
BACE_94.smi

>  <i_m_source_file_index>
1

>  <i_lp_mmshare_version>
42013

>  <i_f3d_flags>
0

>  <s_epik_input>
W0NIM11bQ0hdKFtDSDNdKWMxW2NIXVtjSF1bY0hdYyhbY0hdMSlbQ0gyXVtOSF1bQ0gyXVtDQEBIXShbT0hdKVtDQEhdKFtDSDJdMilbTkhdQyg9TylbQ0BIXShbQ0gzXSlbQ0gyXVMoPU8pKD1PKVtDSDJdW0NIMl1bQ0gyXVtDSDJdT2MoW2NIXTMpW2NIXVtjSF1bY0hdYzIz

>  <s_epik_cmdline>
J2VwaWtfcHl0aG9uJywgJy1waCcsICc3LjAnLCAnLXRuJywgJzgnLCAnLW1hJywgJzIwMCcsICctaW1hZScsICc8aW5maWxlLm1hZT4nLCAnLW9tYWUnLCAnPG91dGZpbGUubWFlPic=

>  <r_lp_tautomer_probability>
1

>  <r_epik_Ionization_Penalty>
1.9976

>  <r_epik_Ionization_Penalty_Charging>
0.0000

>  <r_epik_Ionization_Penalty_Neutral>
1.9976

>  <r_epik_State_Penalty>
2.1261

>  <r_epik_Charging_Adjusted_Penalty>
2.12615

>  <i_epik_Tot_Q>
0

>  <i_epik_Tot_abs_Q>
0

>  <s_lp_Force_Field>
OPLS_2005

>  <r_lp_Energy>
43.4857

>  <b_lp_Chiralities_Consistent>
1

>  <s_lp_Variant>
BACE_94.smi:1-2

>  <chiral flag>
1

>  <version>
0

>  <s_i_glide_gridfile>
second_dock_grid_2

>  <i_i_glide_lignum>
191

>  <i_i_glide_rotatable_bonds>
7

>  <r_i_docking_score>
-2.24023

>  <r_i_glide_ligand_efficiency>
-0.0622285

>  <r_i_glide_ligand_efficiency_sa>
-0.205474

>  <r_i_glide_ligand_efficiency_ln>
-0.488757

>  <r_glide_XP_GScore>
-4.36633

>  <r_i_glide_gscore>
-4.36633

>  <r_i_glide_evdw>
-32.7635

>  <r_i_glide_ecoul>
-9.59644

>  <r_i_glide_energy>
-42.3599

>  <r_i_glide_einternal>
6.91795

>  <r_i_glide_emodel>
-56.1289

>  <r_glide_XP_HBond>
-0.69034

>  <i_i_glide_confnum>
1

>  <i_i_glide_posenum>
7

>  <r_i_glide_eff_state_penalty>
2.1261

>  <i_glide_XP_PoseRank>
1

$$$$
