BACE_155.smi:1
 OpenBabel09291822493D
Structure written by MMmdl.
 75 77  0  0  1  0  0  0  0  0999 V2000
   30.6510   42.6494  -11.5211 C   0  0  0  0  0  0  0  0  0  0  0  0
   29.4487   42.0279  -10.8033 C   0  0  0  0  0  0  0  0  0  0  0  0
   28.1113   42.4511  -11.4246 C   0  0  0  0  0  0  0  0  0  0  0  0
   26.8951   41.8770  -10.6785 C   0  0  0  0  0  0  0  0  0  0  0  0
   25.6597   42.3012  -11.3157 N   0  0  0  0  0  0  0  0  0  0  0  0
   24.9523   43.3990  -11.0153 C   0  0  0  0  0  0  0  0  0  0  0  0
   25.2584   44.1608  -10.0989 O   0  0  0  0  0  0  0  0  0  0  0  0
   23.7255   43.6884  -11.8972 C   0  0  2  0  0  0  0  0  0  0  0  0
   23.6830   45.1882  -12.2575 C   0  0  0  0  0  0  0  0  0  0  0  0
   22.4237   43.2190  -11.2022 C   0  0  0  0  0  0  0  0  0  0  0  0
   22.1584   41.6939  -11.2993 C   0  0  2  0  0  0  0  0  0  0  0  0
   21.6487   41.3545  -12.5774 O   0  0  0  0  0  0  0  0  0  0  0  0
   21.2077   41.1238  -10.2257 C   0  0  2  0  0  0  0  0  0  0  0  0
   20.9777   39.5960  -10.3684 C   0  0  0  0  0  0  0  0  0  0  0  0
   19.9448   39.0595   -9.3948 C   0  0  0  0  0  0  0  0  0  0  0  0
   20.2641   38.9908   -8.0234 C   0  0  0  0  0  0  0  0  0  0  0  0
   19.3017   38.5503   -7.0989 C   0  0  0  0  0  0  0  0  0  0  0  0
   18.0271   38.1638   -7.5487 C   0  0  0  0  0  0  0  0  0  0  0  0
   17.6917   38.2297   -8.9168 C   0  0  0  0  0  0  0  0  0  0  0  0
   16.2992   37.8230   -9.3814 C   0  0  0  0  0  0  0  0  0  0  0  0
   15.1408   38.4802   -8.6006 C   0  0  0  0  0  0  0  0  0  0  0  0
   15.1370   40.0150   -8.6247 C   0  0  0  0  0  0  0  0  0  0  0  0
   14.8437   40.5881  -10.0230 C   0  0  0  0  0  0  0  0  0  0  0  0
   14.6979   42.0378  -10.0185 N   0  0  0  0  0  0  0  0  0  0  0  0
   15.7994   42.8766   -9.8159 C   0  0  0  0  0  0  0  0  0  0  0  0
   17.1290   42.3971   -9.7932 C   0  0  0  0  0  0  0  0  0  0  0  0
   18.1729   43.2947   -9.4836 C   0  0  0  0  0  0  0  0  0  0  0  0
   17.8487   44.6456   -9.2514 C   0  0  0  0  0  0  0  0  0  0  0  0
   16.4991   45.0353   -9.3417 C   0  0  0  0  0  0  0  0  0  0  0  0
   16.0976   46.4786   -9.1360 C   0  0  0  0  0  0  0  0  0  0  0  0
   15.4939   44.1749   -9.6130 N   0  0  0  0  0  0  0  0  0  0  0  0
   19.5859   42.8127   -9.3427 C   0  0  0  0  0  0  0  0  0  0  0  0
   20.3528   43.3203   -8.5266 O   0  0  0  0  0  0  0  0  0  0  0  0
   19.9341   41.8402  -10.1990 N   0  0  0  0  0  0  0  0  0  0  0  0
   18.6616   38.6754   -9.8426 C   0  0  0  0  0  0  0  0  0  0  0  0
   23.8321   43.1446  -12.8359 H   0  0  0  0  0  0  0  0  0  0  0  0
   23.1022   41.1608  -11.1879 H   0  0  0  0  0  0  0  0  0  0  0  0
   21.6964   41.2724   -9.2583 H   0  0  0  0  0  0  0  0  0  0  0  0
   31.5875   42.3434  -11.0563 H   0  0  0  0  0  0  0  0  0  0  0  0
   30.6047   43.7387  -11.4928 H   0  0  0  0  0  0  0  0  0  0  0  0
   30.6826   42.3423  -12.5662 H   0  0  0  0  0  0  0  0  0  0  0  0
   29.5359   40.9449  -10.8403 H   0  0  0  0  0  0  0  0  0  0  0  0
   29.4667   42.3056   -9.7492 H   0  0  0  0  0  0  0  0  0  0  0  0
   28.0518   43.5405  -11.4253 H   0  0  0  0  0  0  0  0  0  0  0  0
   28.0820   42.1417  -12.4715 H   0  0  0  0  0  0  0  0  0  0  0  0
   26.9074   40.7863  -10.6830 H   0  0  0  0  0  0  0  0  0  0  0  0
   26.9156   42.1839   -9.6385 H   0  0  0  0  0  0  0  0  0  0  0  0
   25.3026   41.7037  -12.0533 H   0  0  0  0  0  0  0  0  0  0  0  0
   24.6023   45.4937  -12.7589 H   0  0  0  0  0  0  0  0  0  0  0  0
   23.5644   45.8182  -11.3741 H   0  0  0  0  0  0  0  0  0  0  0  0
   22.8573   45.4121  -12.9285 H   0  0  0  0  0  0  0  0  0  0  0  0
   22.4787   43.5046  -10.1489 H   0  0  0  0  0  0  0  0  0  0  0  0
   21.5630   43.7606  -11.5975 H   0  0  0  0  0  0  0  0  0  0  0  0
   22.3925   41.0631  -13.0982 H   0  0  0  0  0  0  0  0  0  0  0  0
   20.6503   39.3482  -11.3785 H   0  0  0  0  0  0  0  0  0  0  0  0
   21.9177   39.0617  -10.2190 H   0  0  0  0  0  0  0  0  0  0  0  0
   21.2402   39.2927   -7.6770 H   0  0  0  0  0  0  0  0  0  0  0  0
   19.5389   38.5110   -6.0462 H   0  0  0  0  0  0  0  0  0  0  0  0
   17.2943   37.8218   -6.8321 H   0  0  0  0  0  0  0  0  0  0  0  0
   16.1932   38.0521  -10.4386 H   0  0  0  0  0  0  0  0  0  0  0  0
   16.2204   36.7397   -9.2984 H   0  0  0  0  0  0  0  0  0  0  0  0
   14.1867   38.1236   -8.9880 H   0  0  0  0  0  0  0  0  0  0  0  0
   15.1681   38.1505   -7.5594 H   0  0  0  0  0  0  0  0  0  0  0  0
   14.3793   40.3655   -7.9248 H   0  0  0  0  0  0  0  0  0  0  0  0
   16.0822   40.3912   -8.2321 H   0  0  0  0  0  0  0  0  0  0  0  0
   15.6129   40.2958  -10.7388 H   0  0  0  0  0  0  0  0  0  0  0  0
   13.9125   40.1645  -10.3988 H   0  0  0  0  0  0  0  0  0  0  0  0
   13.8101   42.3909   -9.6900 H   0  0  0  0  0  0  0  0  0  0  0  0
   17.3484   41.3510   -9.9450 H   0  0  0  0  0  0  0  0  0  0  0  0
   18.6210   45.3617   -9.0078 H   0  0  0  0  0  0  0  0  0  0  0  0
   16.9147   47.0570   -8.7038 H   0  0  0  0  0  0  0  0  0  0  0  0
   15.2551   46.5361   -8.4524 H   0  0  0  0  0  0  0  0  0  0  0  0
   15.8075   46.9286  -10.0867 H   0  0  0  0  0  0  0  0  0  0  0  0
   19.2351   41.5304  -10.8549 H   0  0  0  0  0  0  0  0  0  0  0  0
   18.4164   38.7317  -10.8938 H   0  0  0  0  0  0  0  0  0  0  0  0
  1  2  1  0  0  0  0
  1 39  1  0  0  0  0
  1 40  1  0  0  0  0
  1 41  1  0  0  0  0
  2  3  1  0  0  0  0
  2 42  1  0  0  0  0
  2 43  1  0  0  0  0
  3  4  1  0  0  0  0
  3 44  1  0  0  0  0
  3 45  1  0  0  0  0
  4  5  1  0  0  0  0
  4 46  1  0  0  0  0
  4 47  1  0  0  0  0
  5  6  1  0  0  0  0
  5 48  1  0  0  0  0
  6  7  2  0  0  0  0
  6  8  1  0  0  0  0
  8 36  1  6  0  0  0
  8  9  1  0  0  0  0
  8 10  1  0  0  0  0
  9 49  1  0  0  0  0
  9 50  1  0  0  0  0
  9 51  1  0  0  0  0
 10 11  1  0  0  0  0
 10 52  1  0  0  0  0
 10 53  1  0  0  0  0
 11 37  1  1  0  0  0
 11 12  1  0  0  0  0
 11 13  1  0  0  0  0
 12 54  1  0  0  0  0
 13 38  1  1  0  0  0
 13 34  1  0  0  0  0
 13 14  1  0  0  0  0
 14 15  1  0  0  0  0
 14 55  1  0  0  0  0
 14 56  1  0  0  0  0
 15 35  1  0  0  0  0
 15 16  2  0  0  0  0
 16 17  1  0  0  0  0
 16 57  1  0  0  0  0
 17 18  2  0  0  0  0
 17 58  1  0  0  0  0
 18 19  1  0  0  0  0
 18 59  1  0  0  0  0
 19 20  1  0  0  0  0
 19 35  2  0  0  0  0
 20 21  1  0  0  0  0
 20 60  1  0  0  0  0
 20 61  1  0  0  0  0
 21 22  1  0  0  0  0
 21 62  1  0  0  0  0
 21 63  1  0  0  0  0
 22 23  1  0  0  0  0
 22 64  1  0  0  0  0
 22 65  1  0  0  0  0
 23 24  1  0  0  0  0
 23 66  1  0  0  0  0
 23 67  1  0  0  0  0
 24 25  1  0  0  0  0
 24 68  1  0  0  0  0
 25 31  1  0  0  0  0
 25 26  2  0  0  0  0
 26 27  1  0  0  0  0
 26 69  1  0  0  0  0
 27 28  2  0  0  0  0
 27 32  1  0  0  0  0
 28 29  1  0  0  0  0
 28 70  1  0  0  0  0
 29 30  1  0  0  0  0
 29 31  2  0  0  0  0
 30 71  1  0  0  0  0
 30 72  1  0  0  0  0
 30 73  1  0  0  0  0
 32 33  2  0  0  0  0
 32 34  1  0  0  0  0
 34 74  1  0  0  0  0
 35 75  1  0  0  0  0
M  END
>  <s_m_source_file>
BACE_155.smi

>  <i_m_source_file_index>
1

>  <i_lp_mmshare_version>
42013

>  <i_f3d_flags>
0

>  <s_epik_input>
W0NIM11bQ0gyXVtDSDJdW0NIMl1bTkhdQyg9TylbQ0BIXShbQ0gzXSlbQ0gyXVtDQEhdKFtPSF0pW0NASF0oW0NIMl0xKVtOSF1DKD1PKWMoW2NIXWMobjIpW0NIM10pW2NIXWMyW05IXVtDSDJdW0NIMl1bQ0gyXVtDSDJdYyhbY0hdMylbY0hdW2NIXVtjSF1jMTM=

>  <s_epik_cmdline>
J2VwaWtfcHl0aG9uJywgJy1waCcsICc3LjAnLCAnLXRuJywgJzgnLCAnLW1hJywgJzIwMCcsICctaW1hZScsICc8aW5maWxlLm1hZT4nLCAnLW9tYWUnLCAnPG91dGZpbGUubWFlPic=

>  <r_lp_tautomer_probability>
1

>  <r_epik_Ionization_Penalty>
0.0137

>  <r_epik_Ionization_Penalty_Charging>
0.0000

>  <r_epik_Ionization_Penalty_Neutral>
0.0137

>  <r_epik_State_Penalty>
0.0106

>  <r_epik_Charging_Adjusted_Penalty>
0.0106346

>  <i_epik_Tot_Q>
0

>  <i_epik_Tot_abs_Q>
0

>  <s_lp_Force_Field>
OPLS_2005

>  <r_lp_Energy>
15.8259

>  <b_lp_Chiralities_Consistent>
1

>  <s_lp_Variant>
BACE_155.smi:1-1

>  <chiral flag>
1

>  <version>
0

>  <s_i_glide_gridfile>
second_dock_grid_2

>  <i_i_glide_lignum>
308

>  <i_i_glide_rotatable_bonds>
9

>  <r_i_docking_score>
-4.31468

>  <r_i_glide_ligand_efficiency>
-0.123277

>  <r_i_glide_ligand_efficiency_sa>
-0.403246

>  <r_i_glide_ligand_efficiency_ln>
-0.947168

>  <r_glide_XP_GScore>
-4.32528

>  <r_i_glide_gscore>
-4.32528

>  <r_i_glide_evdw>
-37.284

>  <r_i_glide_ecoul>
-9.89195

>  <r_i_glide_energy>
-47.176

>  <r_i_glide_einternal>
6.10271

>  <r_i_glide_emodel>
-62.8265

>  <r_glide_XP_HBond>
-1.00645

>  <i_i_glide_confnum>
1

>  <i_i_glide_posenum>
23

>  <r_i_glide_eff_state_penalty>
0.0106

>  <i_glide_XP_PoseRank>
1

$$$$
