BACE_47.smi:1
 OpenBabel09291822493D
Structure written by MMmdl.
 92 95  0  0  1  0  0  0  0  0999 V2000
   20.1030   44.0820   -5.1295 C   0  0  0  0  0  0  0  0  0  0  0  0
   19.6619   45.2816   -5.7436 O   0  0  0  0  0  0  0  0  0  0  0  0
   20.0056   45.3586   -7.1207 C   0  0  0  0  0  0  0  0  0  0  0  0
   19.2885   44.3262   -7.9770 C   0  0  0  0  0  0  0  0  0  0  0  0
   19.9781   43.6834   -9.0288 C   0  0  0  0  0  0  0  0  0  0  0  0
   19.2802   42.7398   -9.8133 C   0  0  0  0  0  0  0  0  0  0  0  0
   17.9250   42.4913   -9.5169 C   0  0  0  0  0  0  0  0  0  0  0  0
   17.3224   43.1605   -8.4253 C   0  0  0  0  0  0  0  0  0  0  0  0
   15.9953   42.9106   -8.0401 N   0  0  0  0  0  0  0  0  0  0  0  0
   15.5482   41.5210   -8.0359 C   0  0  0  0  0  0  0  0  0  0  0  0
   14.6529   41.1713   -9.2419 C   0  0  0  0  0  0  0  0  0  0  0  0
   14.3352   39.6673   -9.3766 C   0  0  0  0  0  0  0  0  0  0  0  0
   15.4517   38.8174  -10.0183 C   0  0  0  0  0  0  0  0  0  0  0  0
   16.5490   38.6692   -9.1291 O   0  0  0  0  0  0  0  0  0  0  0  0
   17.6119   37.8779   -9.6448 C   0  0  0  0  0  0  0  0  0  0  0  0
   18.7193   37.7701   -8.5799 C   0  0  0  0  0  0  0  0  0  0  0  0
   19.5430   39.0682   -8.3747 C   0  0  1  0  0  0  0  0  0  0  0  0
   19.9401   39.2162   -6.8918 C   0  0  0  0  0  0  0  0  0  0  0  0
   20.7878   39.1182   -9.3018 C   0  0  0  0  0  0  0  0  0  0  0  0
   21.4043   40.5317   -9.5470 C   0  0  2  0  0  0  0  0  0  0  0  0
   20.8658   41.1190  -10.7823 N   0  0  0  0  0  0  0  0  0  0  0  0
   19.9213   42.0593  -10.9869 C   0  0  0  0  0  0  0  0  0  0  0  0
   19.5573   42.3575  -12.1233 O   0  0  0  0  0  0  0  0  0  0  0  0
   22.9582   40.5472   -9.6601 C   0  0  2  0  0  0  0  0  0  0  0  0
   23.5428   40.1526   -8.4316 O   0  0  0  0  0  0  0  0  0  0  0  0
   23.5766   41.9080  -10.0528 C   0  0  0  0  0  0  0  0  0  0  0  0
   24.8211   41.7399  -10.8380 N   0  3  0  0  0  0  0  0  0  0  0  0
   25.8049   42.8278  -10.7270 C   0  0  0  0  0  0  0  0  0  0  0  0
   27.1092   42.5227  -10.0300 C   0  0  0  0  0  0  0  0  0  0  0  0
   27.0784   42.7036  -11.5289 C   0  0  0  0  0  0  0  0  0  0  0  0
   25.2184   44.2207  -10.5469 C   0  0  0  0  0  0  0  0  0  0  0  0
   25.0228   45.0600  -11.6673 C   0  0  0  0  0  0  0  0  0  0  0  0
   24.4751   46.3638  -11.5356 C   0  0  0  0  0  0  0  0  0  0  0  0
   24.1259   46.8049  -10.2353 C   0  0  0  0  0  0  0  0  0  0  0  0
   24.3159   45.9789   -9.1123 C   0  0  0  0  0  0  0  0  0  0  0  0
   24.8598   44.6922   -9.2671 C   0  0  0  0  0  0  0  0  0  0  0  0
   24.2520   47.3004  -12.7470 C   0  0  0  0  0  0  0  0  0  0  0  0
   24.5278   46.5324  -14.0606 C   0  0  0  0  0  0  0  0  0  0  0  0
   22.7925   47.8118  -12.7518 C   0  0  0  0  0  0  0  0  0  0  0  0
   25.1752   48.5444  -12.7390 C   0  0  0  0  0  0  0  0  0  0  0  0
   17.9915   44.0704   -7.6815 N   0  0  0  0  0  0  0  0  0  0  0  0
   18.8974   39.9113   -8.6123 H   0  0  0  0  0  0  0  0  0  0  0  0
   21.1502   41.1757   -8.7084 H   0  0  0  0  0  0  0  0  0  0  0  0
   23.2751   39.8153  -10.4054 H   0  0  0  0  0  0  0  0  0  0  0  0
   21.1889   43.9880   -5.1741 H   0  0  0  0  0  0  0  0  0  0  0  0
   19.6554   43.2058   -5.6005 H   0  0  0  0  0  0  0  0  0  0  0  0
   19.8111   44.0817   -4.0793 H   0  0  0  0  0  0  0  0  0  0  0  0
   21.0808   45.2162   -7.2404 H   0  0  0  0  0  0  0  0  0  0  0  0
   19.7635   46.3506   -7.5058 H   0  0  0  0  0  0  0  0  0  0  0  0
   21.0115   43.9230   -9.2357 H   0  0  0  0  0  0  0  0  0  0  0  0
   17.3719   41.7844  -10.1165 H   0  0  0  0  0  0  0  0  0  0  0  0
   15.6583   43.4592   -7.2620 H   0  0  0  0  0  0  0  0  0  0  0  0
   14.9898   41.3536   -7.1144 H   0  0  0  0  0  0  0  0  0  0  0  0
   16.4116   40.8607   -7.9775 H   0  0  0  0  0  0  0  0  0  0  0  0
   13.7146   41.7167   -9.1318 H   0  0  0  0  0  0  0  0  0  0  0  0
   15.0873   41.5317  -10.1741 H   0  0  0  0  0  0  0  0  0  0  0  0
   13.4521   39.5741  -10.0098 H   0  0  0  0  0  0  0  0  0  0  0  0
   14.0490   39.2498   -8.4105 H   0  0  0  0  0  0  0  0  0  0  0  0
   15.7779   39.2657  -10.9581 H   0  0  0  0  0  0  0  0  0  0  0  0
   15.0517   37.8309  -10.2579 H   0  0  0  0  0  0  0  0  0  0  0  0
   18.0012   38.3015  -10.5717 H   0  0  0  0  0  0  0  0  0  0  0  0
   17.2380   36.8794   -9.8765 H   0  0  0  0  0  0  0  0  0  0  0  0
   19.3901   36.9479   -8.8328 H   0  0  0  0  0  0  0  0  0  0  0  0
   18.2434   37.4694   -7.6455 H   0  0  0  0  0  0  0  0  0  0  0  0
   19.0601   39.2319   -6.2478 H   0  0  0  0  0  0  0  0  0  0  0  0
   20.4794   40.1442   -6.7063 H   0  0  0  0  0  0  0  0  0  0  0  0
   20.5742   38.3923   -6.5622 H   0  0  0  0  0  0  0  0  0  0  0  0
   21.5344   38.4449   -8.8802 H   0  0  0  0  0  0  0  0  0  0  0  0
   20.5414   38.6762  -10.2688 H   0  0  0  0  0  0  0  0  0  0  0  0
   21.2514   40.7172  -11.6249 H   0  0  0  0  0  0  0  0  0  0  0  0
   24.1000   39.4061   -8.5907 H   0  0  0  0  0  0  0  0  0  0  0  0
   23.8239   42.4540   -9.1417 H   0  0  0  0  0  0  0  0  0  0  0  0
   22.8654   42.5253  -10.6018 H   0  0  0  0  0  0  0  0  0  0  0  0
   24.5641   41.6486  -11.8105 H   0  0  0  0  0  0  0  0  0  0  0  0
   27.5613   43.3163   -9.4351 H   0  0  0  0  0  0  0  0  0  0  0  0
   27.2523   41.5126   -9.6463 H   0  0  0  0  0  0  0  0  0  0  0  0
   27.2008   41.8143  -12.1472 H   0  0  0  0  0  0  0  0  0  0  0  0
   27.5098   43.6180  -11.9360 H   0  0  0  0  0  0  0  0  0  0  0  0
   25.3089   44.6677  -12.6305 H   0  0  0  0  0  0  0  0  0  0  0  0
   23.7057   47.7871  -10.0791 H   0  0  0  0  0  0  0  0  0  0  0  0
   24.0436   46.3342   -8.1293 H   0  0  0  0  0  0  0  0  0  0  0  0
   25.0017   44.0690   -8.3962 H   0  0  0  0  0  0  0  0  0  0  0  0
   25.5474   46.1453  -14.0873 H   0  0  0  0  0  0  0  0  0  0  0  0
   24.4036   47.1750  -14.9333 H   0  0  0  0  0  0  0  0  0  0  0  0
   23.8551   45.6859  -14.1987 H   0  0  0  0  0  0  0  0  0  0  0  0
   22.5575   48.3496  -11.8323 H   0  0  0  0  0  0  0  0  0  0  0  0
   22.0672   47.0040  -12.8502 H   0  0  0  0  0  0  0  0  0  0  0  0
   22.6113   48.4964  -13.5815 H   0  0  0  0  0  0  0  0  0  0  0  0
   25.0150   49.1670  -11.8576 H   0  0  0  0  0  0  0  0  0  0  0  0
   24.9912   49.1813  -13.6055 H   0  0  0  0  0  0  0  0  0  0  0  0
   26.2306   48.2708  -12.7743 H   0  0  0  0  0  0  0  0  0  0  0  0
   25.2672   40.8823  -10.5455 H   0  0  0  0  0  0  0  0  0  0  0  0
  1  2  1  0  0  0  0
  1 45  1  0  0  0  0
  1 46  1  0  0  0  0
  1 47  1  0  0  0  0
  2  3  1  0  0  0  0
  3  4  1  0  0  0  0
  3 48  1  0  0  0  0
  3 49  1  0  0  0  0
  4 41  1  0  0  0  0
  4  5  2  0  0  0  0
  5  6  1  0  0  0  0
  5 50  1  0  0  0  0
  6 22  1  0  0  0  0
  6  7  2  0  0  0  0
  7  8  1  0  0  0  0
  7 51  1  0  0  0  0
  8  9  1  0  0  0  0
  8 41  2  0  0  0  0
  9 10  1  0  0  0  0
  9 52  1  0  0  0  0
 10 11  1  0  0  0  0
 10 53  1  0  0  0  0
 10 54  1  0  0  0  0
 11 12  1  0  0  0  0
 11 55  1  0  0  0  0
 11 56  1  0  0  0  0
 12 13  1  0  0  0  0
 12 57  1  0  0  0  0
 12 58  1  0  0  0  0
 13 14  1  0  0  0  0
 13 59  1  0  0  0  0
 13 60  1  0  0  0  0
 14 15  1  0  0  0  0
 15 16  1  0  0  0  0
 15 61  1  0  0  0  0
 15 62  1  0  0  0  0
 16 17  1  0  0  0  0
 16 63  1  0  0  0  0
 16 64  1  0  0  0  0
 17 42  1  6  0  0  0
 17 18  1  0  0  0  0
 17 19  1  0  0  0  0
 18 65  1  0  0  0  0
 18 66  1  0  0  0  0
 18 67  1  0  0  0  0
 19 20  1  0  0  0  0
 19 68  1  0  0  0  0
 19 69  1  0  0  0  0
 20 43  1  1  0  0  0
 20 21  1  0  0  0  0
 20 24  1  0  0  0  0
 21 22  1  0  0  0  0
 21 70  1  0  0  0  0
 22 23  2  0  0  0  0
 24 44  1  6  0  0  0
 24 25  1  0  0  0  0
 24 26  1  0  0  0  0
 25 71  1  0  0  0  0
 26 27  1  0  0  0  0
 26 72  1  0  0  0  0
 26 73  1  0  0  0  0
 27 28  1  0  0  0  0
 27 74  1  0  0  0  0
 27 92  1  0  0  0  0
 28 30  1  0  0  0  0
 28 29  1  0  0  0  0
 28 31  1  0  0  0  0
 29 30  1  0  0  0  0
 29 75  1  0  0  0  0
 29 76  1  0  0  0  0
 30 77  1  0  0  0  0
 30 78  1  0  0  0  0
 31 36  1  0  0  0  0
 31 32  2  0  0  0  0
 32 33  1  0  0  0  0
 32 79  1  0  0  0  0
 33 34  2  0  0  0  0
 33 37  1  0  0  0  0
 34 35  1  0  0  0  0
 34 80  1  0  0  0  0
 35 36  2  0  0  0  0
 35 81  1  0  0  0  0
 36 82  1  0  0  0  0
 37 38  1  0  0  0  0
 37 39  1  0  0  0  0
 37 40  1  0  0  0  0
 38 83  1  0  0  0  0
 38 84  1  0  0  0  0
 38 85  1  0  0  0  0
 39 86  1  0  0  0  0
 39 87  1  0  0  0  0
 39 88  1  0  0  0  0
 40 89  1  0  0  0  0
 40 90  1  0  0  0  0
 40 91  1  0  0  0  0
M  CHG  1  27   1
M  END
>  <s_m_source_file>
BACE_47.smi

>  <i_m_source_file_index>
1

>  <i_lp_mmshare_version>
42013

>  <i_f3d_flags>
0

>  <s_epik_input>
W0NIM11PW0NIMl1jKFtjSF1jMTIpbmMoW2NIXTEpW05IXVtDSDJdW0NIMl1bQ0gyXVtDSDJdT1tDSDJdW0NIMl1bQ0BASF0oW0NIM10pW0NIMl1bQ0BIXShbTkhdQzI9TylbQ0BIXShbT0hdKVtDSDJdW05IXUMzKFtDSDJdW0NIMl0zKWM0W2NIXWMoQyhbQ0gzXSkoW0NIM10pW0NIM10pW2NIXVtjSF1bY0hdNA==

>  <s_epik_cmdline>
J2VwaWtfcHl0aG9uJywgJy1waCcsICc3LjAnLCAnLXRuJywgJzgnLCAnLW1hJywgJzIwMCcsICctaW1hZScsICc8aW5maWxlLm1hZT4nLCAnLW9tYWUnLCAnPG91dGZpbGUubWFlPic=

>  <r_lp_tautomer_probability>
1

>  <r_epik_Ionization_Penalty>
0.4818

>  <r_epik_Ionization_Penalty_Charging>
0.4813

>  <r_epik_Ionization_Penalty_Neutral>
0.0005

>  <r_epik_State_Penalty>
0.4863

>  <r_epik_Charging_Adjusted_Penalty>
0.967681

>  <i_epik_Tot_Q>
1

>  <i_epik_Tot_abs_Q>
1

>  <s_lp_Force_Field>
OPLS_2005

>  <r_lp_Energy>
45.075

>  <b_lp_Chiralities_Consistent>
1

>  <s_lp_Variant>
BACE_47.smi:1-2

>  <chiral flag>
1

>  <version>
0

>  <s_i_glide_gridfile>
second_dock_grid_2

>  <i_i_glide_lignum>
89

>  <i_i_glide_rotatable_bonds>
9

>  <r_i_docking_score>
-5.05207

>  <r_i_glide_ligand_efficiency>
-0.123221

>  <r_i_glide_ligand_efficiency_sa>
-0.424893

>  <r_i_glide_ligand_efficiency_ln>
-1.07181

>  <r_glide_XP_GScore>
-5.53837

>  <r_i_glide_gscore>
-5.53837

>  <r_i_glide_evdw>
-33.4059

>  <r_i_glide_ecoul>
-16.0663

>  <r_i_glide_energy>
-49.4722

>  <r_i_glide_einternal>
4.65387

>  <r_i_glide_emodel>
-71.8551

>  <r_glide_XP_HBond>
-1.77688

>  <i_i_glide_confnum>
1

>  <i_i_glide_posenum>
7

>  <r_i_glide_eff_state_penalty>
0.4863

>  <i_glide_XP_PoseRank>
1

$$$$
