BACE_133.smi:1
 OpenBabel09291822493D
Structure written by MMmdl.
 90 94  0  0  1  0  0  0  0  0999 V2000
   19.0842   48.9029   -6.7016 C   0  0  0  0  0  0  0  0  0  0  0  0
   17.8976   49.2049   -7.6091 C   0  0  0  0  0  0  0  0  0  0  0  0
   17.3666   50.3149   -7.6106 O   0  0  0  0  0  0  0  0  0  0  0  0
   17.4076   48.0687   -8.5070 C   0  0  0  0  0  0  0  0  0  0  0  0
   18.0030   46.8430   -8.0992 O   0  0  0  0  0  0  0  0  0  0  0  0
   17.9088   45.7571   -8.9450 C   0  0  0  0  0  0  0  0  0  0  0  0
   16.8940   45.5898   -9.9219 C   0  0  0  0  0  0  0  0  0  0  0  0
   16.8793   44.4455  -10.7458 C   0  0  0  0  0  0  0  0  0  0  0  0
   17.9053   43.4866  -10.6278 C   0  0  0  0  0  0  0  0  0  0  0  0
   18.8776   43.5906   -9.6077 C   0  0  0  0  0  0  0  0  0  0  0  0
   18.8816   44.7457   -8.7917 C   0  0  0  0  0  0  0  0  0  0  0  0
   19.8729   42.4836   -9.3677 C   0  0  0  0  0  0  0  0  0  0  0  0
   20.9386   42.7056   -8.7913 O   0  0  0  0  0  0  0  0  0  0  0  0
   19.4646   41.2523   -9.7383 N   0  0  0  0  0  0  0  0  0  0  0  0
   20.0998   39.9650   -9.4237 C   0  0  1  0  0  0  0  0  0  0  0  0
   19.0429   38.8234   -9.4790 C   0  0  0  0  0  0  0  0  0  0  0  0
   17.6870   39.1262   -8.8439 C   0  0  0  0  0  0  0  0  0  0  0  0
   16.5449   39.3178   -9.6553 C   0  0  0  0  0  0  0  0  0  0  0  0
   15.2877   39.6105   -9.0781 C   0  0  0  0  0  0  0  0  0  0  0  0
   14.0684   39.8600   -9.9623 C   0  0  0  0  0  0  0  0  0  0  0  0
   13.7661   41.3550  -10.2179 C   0  0  0  0  0  0  0  0  0  0  0  0
   14.8866   42.0890  -10.9766 C   0  0  0  0  0  0  0  0  0  0  0  0
   14.6994   43.6161  -11.0959 C   0  0  0  0  0  0  0  0  0  0  0  0
   15.8598   44.2462  -11.6467 O   0  0  0  0  0  0  0  0  0  0  0  0
   15.1725   39.6778   -7.6730 C   0  0  0  0  0  0  0  0  0  0  0  0
   16.3020   39.4658   -6.8579 C   0  0  0  0  0  0  0  0  0  0  0  0
   17.5556   39.1928   -7.4401 C   0  0  0  0  0  0  0  0  0  0  0  0
   21.3136   39.6247  -10.3456 C   0  0  2  0  0  0  0  0  0  0  0  0
   22.0566   38.5647   -9.7737 O   0  0  0  0  0  0  0  0  0  0  0  0
   22.2565   40.7966  -10.7058 C   0  0  0  0  0  0  0  0  0  0  0  0
   23.5355   40.7042   -9.9651 N   0  3  0  0  0  0  0  0  0  0  0  0
   24.1729   41.9831   -9.6158 C   0  0  0  0  0  0  0  0  0  0  0  0
   25.6442   42.1369   -9.9187 C   0  0  0  0  0  0  0  0  0  0  0  0
   24.6212   42.8738  -10.7498 C   0  0  0  0  0  0  0  0  0  0  0  0
   23.6377   42.6563   -8.3601 C   0  0  0  0  0  0  0  0  0  0  0  0
   23.0382   41.9100   -7.3197 C   0  0  0  0  0  0  0  0  0  0  0  0
   22.5561   42.5786   -6.1639 C   0  0  0  0  0  0  0  0  0  0  0  0
   22.7131   43.9862   -6.1278 C   0  0  0  0  0  0  0  0  0  0  0  0
   23.3266   44.6422   -7.2130 C   0  0  0  0  0  0  0  0  0  0  0  0
   23.7823   43.9992   -8.3070 N   0  0  0  0  0  0  0  0  0  0  0  0
   21.8873   41.8404   -4.9821 C   0  0  0  0  0  0  0  0  0  0  0  0
   20.7046   40.9894   -5.4993 C   0  0  0  0  0  0  0  0  0  0  0  0
   22.9175   40.9163   -4.2928 C   0  0  0  0  0  0  0  0  0  0  0  0
   21.3302   42.8004   -3.9020 C   0  0  0  0  0  0  0  0  0  0  0  0
   20.4380   40.0094   -8.3862 H   0  0  0  0  0  0  0  0  0  0  0  0
   20.9196   39.2125  -11.2759 H   0  0  0  0  0  0  0  0  0  0  0  0
   18.8428   48.0865   -6.0207 H   0  0  0  0  0  0  0  0  0  0  0  0
   19.3477   49.7794   -6.1092 H   0  0  0  0  0  0  0  0  0  0  0  0
   19.9518   48.6145   -7.2952 H   0  0  0  0  0  0  0  0  0  0  0  0
   17.6742   48.2964   -9.5398 H   0  0  0  0  0  0  0  0  0  0  0  0
   16.3212   48.0065   -8.4340 H   0  0  0  0  0  0  0  0  0  0  0  0
   16.1071   46.3174  -10.0520 H   0  0  0  0  0  0  0  0  0  0  0  0
   17.8888   42.6336  -11.2908 H   0  0  0  0  0  0  0  0  0  0  0  0
   19.6253   44.8623   -8.0162 H   0  0  0  0  0  0  0  0  0  0  0  0
   18.5703   41.1927  -10.2038 H   0  0  0  0  0  0  0  0  0  0  0  0
   18.8685   38.5432  -10.5187 H   0  0  0  0  0  0  0  0  0  0  0  0
   19.4467   37.9287   -9.0028 H   0  0  0  0  0  0  0  0  0  0  0  0
   16.6361   39.2607  -10.7305 H   0  0  0  0  0  0  0  0  0  0  0  0
   14.1999   39.3423  -10.9134 H   0  0  0  0  0  0  0  0  0  0  0  0
   13.2016   39.3943   -9.4917 H   0  0  0  0  0  0  0  0  0  0  0  0
   12.8379   41.4403  -10.7841 H   0  0  0  0  0  0  0  0  0  0  0  0
   13.5839   41.8498   -9.2631 H   0  0  0  0  0  0  0  0  0  0  0  0
   15.0073   41.6576  -11.9712 H   0  0  0  0  0  0  0  0  0  0  0  0
   15.8125   41.8958  -10.4464 H   0  0  0  0  0  0  0  0  0  0  0  0
   14.4527   44.0509  -10.1255 H   0  0  0  0  0  0  0  0  0  0  0  0
   13.8533   43.8307  -11.7493 H   0  0  0  0  0  0  0  0  0  0  0  0
   14.2190   39.8957   -7.2144 H   0  0  0  0  0  0  0  0  0  0  0  0
   16.2076   39.5177   -5.7832 H   0  0  0  0  0  0  0  0  0  0  0  0
   18.4149   39.0355   -6.8045 H   0  0  0  0  0  0  0  0  0  0  0  0
   22.9318   38.5861  -10.1293 H   0  0  0  0  0  0  0  0  0  0  0  0
   21.7821   41.7558  -10.4947 H   0  0  0  0  0  0  0  0  0  0  0  0
   22.4773   40.7716  -11.7730 H   0  0  0  0  0  0  0  0  0  0  0  0
   24.1860   40.1619  -10.5154 H   0  0  0  0  0  0  0  0  0  0  0  0
   26.2446   42.7219   -9.2220 H   0  0  0  0  0  0  0  0  0  0  0  0
   26.1556   41.2921  -10.3801 H   0  0  0  0  0  0  0  0  0  0  0  0
   24.4486   42.5216  -11.7668 H   0  0  0  0  0  0  0  0  0  0  0  0
   24.5376   43.9514  -10.6087 H   0  0  0  0  0  0  0  0  0  0  0  0
   22.9650   40.8399   -7.4354 H   0  0  0  0  0  0  0  0  0  0  0  0
   22.3737   44.5702   -5.2853 H   0  0  0  0  0  0  0  0  0  0  0  0
   23.4549   45.7145   -7.2004 H   0  0  0  0  0  0  0  0  0  0  0  0
   20.1959   40.4738   -4.6836 H   0  0  0  0  0  0  0  0  0  0  0  0
   21.0215   40.2214   -6.2051 H   0  0  0  0  0  0  0  0  0  0  0  0
   19.9612   41.6080   -6.0039 H   0  0  0  0  0  0  0  0  0  0  0  0
   22.4812   40.3983   -3.4376 H   0  0  0  0  0  0  0  0  0  0  0  0
   23.7746   41.4821   -3.9248 H   0  0  0  0  0  0  0  0  0  0  0  0
   23.3000   40.1461   -4.9628 H   0  0  0  0  0  0  0  0  0  0  0  0
   20.8657   42.2500   -3.0826 H   0  0  0  0  0  0  0  0  0  0  0  0
   20.5642   43.4658   -4.3026 H   0  0  0  0  0  0  0  0  0  0  0  0
   22.1145   43.4151   -3.4579 H   0  0  0  0  0  0  0  0  0  0  0  0
   23.3561   40.2069   -9.1046 H   0  0  0  0  0  0  0  0  0  0  0  0
  1  2  1  0  0  0  0
  1 47  1  0  0  0  0
  1 48  1  0  0  0  0
  1 49  1  0  0  0  0
  2  3  2  0  0  0  0
  2  4  1  0  0  0  0
  4  5  1  0  0  0  0
  4 50  1  0  0  0  0
  4 51  1  0  0  0  0
  5  6  1  0  0  0  0
  6 11  1  0  0  0  0
  6  7  2  0  0  0  0
  7  8  1  0  0  0  0
  7 52  1  0  0  0  0
  8 24  1  0  0  0  0
  8  9  2  0  0  0  0
  9 10  1  0  0  0  0
  9 53  1  0  0  0  0
 10 11  2  0  0  0  0
 10 12  1  0  0  0  0
 11 54  1  0  0  0  0
 12 13  2  0  0  0  0
 12 14  1  0  0  0  0
 14 15  1  0  0  0  0
 14 55  1  0  0  0  0
 15 45  1  1  0  0  0
 15 16  1  0  0  0  0
 15 28  1  0  0  0  0
 16 17  1  0  0  0  0
 16 56  1  0  0  0  0
 16 57  1  0  0  0  0
 17 27  1  0  0  0  0
 17 18  2  0  0  0  0
 18 19  1  0  0  0  0
 18 58  1  0  0  0  0
 19 20  1  0  0  0  0
 19 25  2  0  0  0  0
 20 21  1  0  0  0  0
 20 59  1  0  0  0  0
 20 60  1  0  0  0  0
 21 22  1  0  0  0  0
 21 61  1  0  0  0  0
 21 62  1  0  0  0  0
 22 23  1  0  0  0  0
 22 63  1  0  0  0  0
 22 64  1  0  0  0  0
 23 24  1  0  0  0  0
 23 65  1  0  0  0  0
 23 66  1  0  0  0  0
 25 26  1  0  0  0  0
 25 67  1  0  0  0  0
 26 27  2  0  0  0  0
 26 68  1  0  0  0  0
 27 69  1  0  0  0  0
 28 46  1  6  0  0  0
 28 29  1  0  0  0  0
 28 30  1  0  0  0  0
 29 70  1  0  0  0  0
 30 31  1  0  0  0  0
 30 71  1  0  0  0  0
 30 72  1  0  0  0  0
 31 32  1  0  0  0  0
 31 73  1  0  0  0  0
 31 90  1  0  0  0  0
 32 34  1  0  0  0  0
 32 33  1  0  0  0  0
 32 35  1  0  0  0  0
 33 34  1  0  0  0  0
 33 74  1  0  0  0  0
 33 75  1  0  0  0  0
 34 76  1  0  0  0  0
 34 77  1  0  0  0  0
 35 40  1  0  0  0  0
 35 36  2  0  0  0  0
 36 37  1  0  0  0  0
 36 78  1  0  0  0  0
 37 38  2  0  0  0  0
 37 41  1  0  0  0  0
 38 39  1  0  0  0  0
 38 79  1  0  0  0  0
 39 40  2  0  0  0  0
 39 80  1  0  0  0  0
 41 42  1  0  0  0  0
 41 43  1  0  0  0  0
 41 44  1  0  0  0  0
 42 81  1  0  0  0  0
 42 82  1  0  0  0  0
 42 83  1  0  0  0  0
 43 84  1  0  0  0  0
 43 85  1  0  0  0  0
 43 86  1  0  0  0  0
 44 87  1  0  0  0  0
 44 88  1  0  0  0  0
 44 89  1  0  0  0  0
M  CHG  1  31   1
M  END
>  <s_m_source_file>
BACE_133.smi

>  <i_m_source_file_index>
1

>  <i_lp_mmshare_version>
42013

>  <i_f3d_flags>
0

>  <s_epik_input>
W0NIM11DKD1PKVtDSDJdT2MoW2NIXWMxMilbY0hdYyhbY0hdMSlDKD1PKVtOSF1bQ0BASF0oW0NIMl1jM1tjSF1jKFtjSF1bY0hdW2NIXTMpW0NIMl1bQ0gyXVtDSDJdW0NIMl1PMilbQ0BIXShbT0hdKVtDSDJdW05IXUM0KFtDSDJdW0NIMl00KWM1W2NIXWMoW2NIXVtjSF1uNSlDKFtDSDNdKShbQ0gzXSlbQ0gzXQ==

>  <s_epik_cmdline>
J2VwaWtfcHl0aG9uJywgJy1waCcsICc3LjAnLCAnLXRuJywgJzgnLCAnLW1hJywgJzIwMCcsICctaW1hZScsICc8aW5maWxlLm1hZT4nLCAnLW9tYWUnLCAnPG91dGZpbGUubWFlPic=

>  <r_lp_tautomer_probability>
1

>  <r_epik_Ionization_Penalty>
0.7890

>  <r_epik_Ionization_Penalty_Charging>
0.7876

>  <r_epik_Ionization_Penalty_Neutral>
0.0014

>  <r_epik_State_Penalty>
1.8158

>  <r_epik_Charging_Adjusted_Penalty>
2.60347

>  <i_epik_Tot_Q>
1

>  <i_epik_Tot_abs_Q>
1

>  <s_lp_Force_Field>
OPLS_2005

>  <r_lp_Energy>
41.1075

>  <b_lp_Chiralities_Consistent>
1

>  <s_lp_Variant>
BACE_133.smi:1-3

>  <chiral flag>
1

>  <version>
0

>  <s_i_glide_gridfile>
second_dock_grid_2

>  <i_i_glide_lignum>
274

>  <i_i_glide_rotatable_bonds>
10

>  <r_i_docking_score>
-4.20418

>  <r_i_glide_ligand_efficiency>
-0.0955495

>  <r_i_glide_ligand_efficiency_sa>
-0.337323

>  <r_i_glide_ligand_efficiency_ln>
-0.878764

>  <r_glide_XP_GScore>
-6.01998

>  <r_i_glide_gscore>
-6.01998

>  <r_i_glide_evdw>
-39.8

>  <r_i_glide_ecoul>
-13.2244

>  <r_i_glide_energy>
-53.0245

>  <r_i_glide_einternal>
7.61774

>  <r_i_glide_emodel>
-81.5001

>  <r_glide_XP_HBond>
-1.41558

>  <i_i_glide_confnum>
1

>  <i_i_glide_posenum>
1

>  <r_i_glide_eff_state_penalty>
1.8158

>  <i_glide_XP_PoseRank>
1

$$$$
