BACE_102.smi:1
 OpenBabel09291822493D
Structure written by MMmdl.
 83 87  0  0  1  0  0  0  0  0999 V2000
   21.9037   40.6364   -4.0000 C   0  0  0  0  0  0  0  0  0  0  0  0
   21.9160   41.8037   -4.9653 C   0  0  0  0  0  0  0  0  0  0  0  0
   20.8504   41.9961   -5.8629 C   0  0  0  0  0  0  0  0  0  0  0  0
   20.8914   43.0973   -6.7452 C   0  0  0  0  0  0  0  0  0  0  0  0
   22.0349   43.9218   -6.7174 C   0  0  0  0  0  0  0  0  0  0  0  0
   23.0531   43.6566   -5.7736 C   0  0  0  0  0  0  0  0  0  0  0  0
   24.1948   44.4561   -5.6397 N   0  0  0  0  0  0  0  0  0  0  0  0
   24.2459   45.7873   -6.2294 C   0  0  0  0  0  0  0  0  0  0  0  0
   23.2775   46.7621   -5.5869 C   0  0  0  0  0  0  0  0  0  0  0  0
   22.3211   47.4182   -6.2638 C   0  0  0  0  0  0  0  0  0  0  0  0
   21.3131   48.3697   -5.6473 C   0  0  0  0  0  0  0  0  0  0  0  0
   19.9969   47.8241   -5.6401 O   0  0  0  0  0  0  0  0  0  0  0  0
   19.3831   47.4806   -6.8267 C   0  0  0  0  0  0  0  0  0  0  0  0
   18.4583   46.4197   -6.7570 C   0  0  0  0  0  0  0  0  0  0  0  0
   17.7531   45.9828   -7.8985 C   0  0  0  0  0  0  0  0  0  0  0  0
   16.7313   44.8558   -7.7990 C   0  0  0  0  0  0  0  0  0  0  0  0
   17.2443   43.3934   -7.8855 C   0  0  2  0  0  0  0  0  0  0  0  0
   18.5361   43.1231   -7.2416 N   0  0  0  0  0  0  0  0  0  0  0  0
   19.7689   43.3935   -7.7012 C   0  0  0  0  0  0  0  0  0  0  0  0
   19.9916   43.9335   -8.7847 O   0  0  0  0  0  0  0  0  0  0  0  0
   17.0656   42.7120   -9.2692 C   0  0  2  0  0  0  0  0  0  0  0  0
   17.2860   43.6280  -10.3236 O   0  0  0  0  0  0  0  0  0  0  0  0
   15.6383   42.1440   -9.4759 C   0  0  0  0  0  0  0  0  0  0  0  0
   15.3081   41.0160   -8.5943 N   0  0  0  0  0  0  0  0  0  0  0  0
   15.8119   39.7007   -8.9965 C   0  0  0  0  0  0  0  0  0  0  0  0
   15.2490   39.0836  -10.2495 C   0  0  0  0  0  0  0  0  0  0  0  0
   14.8433   38.5462   -8.8984 C   0  0  0  0  0  0  0  0  0  0  0  0
   17.2294   39.4404   -8.5801 C   0  0  0  0  0  0  0  0  0  0  0  0
   18.2901   39.5156   -9.5101 C   0  0  0  0  0  0  0  0  0  0  0  0
   19.6395   39.3620   -9.1105 C   0  0  0  0  0  0  0  0  0  0  0  0
   19.8964   39.0580   -7.7508 C   0  0  0  0  0  0  0  0  0  0  0  0
   18.8426   38.9248   -6.8298 C   0  0  0  0  0  0  0  0  0  0  0  0
   17.5158   39.1240   -7.2404 C   0  0  0  0  0  0  0  0  0  0  0  0
   20.7908   39.5973  -10.1087 C   0  0  0  0  0  0  0  0  0  0  0  0
   21.1400   41.0949  -10.1264 C   0  0  0  0  0  0  0  0  0  0  0  0
   22.0615   38.8204   -9.7118 C   0  0  0  0  0  0  0  0  0  0  0  0
   20.4117   39.1782  -11.5480 C   0  0  0  0  0  0  0  0  0  0  0  0
   17.9771   46.6237   -9.1322 C   0  0  0  0  0  0  0  0  0  0  0  0
   18.8946   47.6867   -9.2179 C   0  0  0  0  0  0  0  0  0  0  0  0
   19.5915   48.1243   -8.0748 C   0  0  0  0  0  0  0  0  0  0  0  0
   20.4317   49.1791   -8.2021 F   0  0  0  0  0  0  0  0  0  0  0  0
   22.9859   42.6244   -4.9080 N   0  0  0  0  0  0  0  0  0  0  0  0
   16.5783   42.8361   -7.2266 H   0  0  0  0  0  0  0  0  0  0  0  0
   17.8157   41.9428   -9.3899 H   0  0  0  0  0  0  0  0  0  0  0  0
   22.8227   40.5919   -3.4131 H   0  0  0  0  0  0  0  0  0  0  0  0
   21.8031   39.6982   -4.5440 H   0  0  0  0  0  0  0  0  0  0  0  0
   21.0630   40.7261   -3.3126 H   0  0  0  0  0  0  0  0  0  0  0  0
   20.0183   41.3094   -5.8596 H   0  0  0  0  0  0  0  0  0  0  0  0
   22.0999   44.7553   -7.3990 H   0  0  0  0  0  0  0  0  0  0  0  0
   24.7116   44.3126   -4.7758 H   0  0  0  0  0  0  0  0  0  0  0  0
   25.2562   46.1757   -6.0961 H   0  0  0  0  0  0  0  0  0  0  0  0
   24.0819   45.7295   -7.3055 H   0  0  0  0  0  0  0  0  0  0  0  0
   23.3807   46.9057   -4.5209 H   0  0  0  0  0  0  0  0  0  0  0  0
   22.2283   47.2563   -7.3283 H   0  0  0  0  0  0  0  0  0  0  0  0
   21.3538   49.3496   -6.1187 H   0  0  0  0  0  0  0  0  0  0  0  0
   21.5922   48.5430   -4.6078 H   0  0  0  0  0  0  0  0  0  0  0  0
   18.2942   45.9262   -5.8112 H   0  0  0  0  0  0  0  0  0  0  0  0
   15.9368   45.0259   -8.5259 H   0  0  0  0  0  0  0  0  0  0  0  0
   16.2385   44.9501   -6.8401 H   0  0  0  0  0  0  0  0  0  0  0  0
   18.4812   42.6464   -6.3486 H   0  0  0  0  0  0  0  0  0  0  0  0
   17.6501   43.1505  -11.0522 H   0  0  0  0  0  0  0  0  0  0  0  0
   15.5008   41.8487  -10.5166 H   0  0  0  0  0  0  0  0  0  0  0  0
   14.9195   42.9451   -9.3033 H   0  0  0  0  0  0  0  0  0  0  0  0
   14.3034   40.9503   -8.4397 H   0  0  0  0  0  0  0  0  0  0  0  0
   14.4873   39.6264  -10.8075 H   0  0  0  0  0  0  0  0  0  0  0  0
   15.9437   38.5020  -10.8400 H   0  0  0  0  0  0  0  0  0  0  0  0
   15.2566   37.5855   -8.5958 H   0  0  0  0  0  0  0  0  0  0  0  0
   13.8224   38.7448   -8.5747 H   0  0  0  0  0  0  0  0  0  0  0  0
   18.0462   39.7666  -10.5294 H   0  0  0  0  0  0  0  0  0  0  0  0
   20.8994   38.9398   -7.3755 H   0  0  0  0  0  0  0  0  0  0  0  0
   19.0487   38.6954   -5.7954 H   0  0  0  0  0  0  0  0  0  0  0  0
   16.7134   39.0468   -6.5185 H   0  0  0  0  0  0  0  0  0  0  0  0
   20.2827   41.6970  -10.4247 H   0  0  0  0  0  0  0  0  0  0  0  0
   21.9503   41.3103  -10.8256 H   0  0  0  0  0  0  0  0  0  0  0  0
   21.4642   41.4341   -9.1430 H   0  0  0  0  0  0  0  0  0  0  0  0
   21.8734   37.7507   -9.6330 H   0  0  0  0  0  0  0  0  0  0  0  0
   22.4777   39.1577   -8.7636 H   0  0  0  0  0  0  0  0  0  0  0  0
   22.8595   38.9729  -10.4399 H   0  0  0  0  0  0  0  0  0  0  0  0
   20.0578   38.1499  -11.5837 H   0  0  0  0  0  0  0  0  0  0  0  0
   21.2674   39.2555  -12.2202 H   0  0  0  0  0  0  0  0  0  0  0  0
   19.6330   39.8082  -11.9768 H   0  0  0  0  0  0  0  0  0  0  0  0
   17.4479   46.3000  -10.0161 H   0  0  0  0  0  0  0  0  0  0  0  0
   19.0606   48.1761  -10.1661 H   0  0  0  0  0  0  0  0  0  0  0  0
  1  2  1  0  0  0  0
  1 45  1  0  0  0  0
  1 46  1  0  0  0  0
  1 47  1  0  0  0  0
  2 42  1  0  0  0  0
  2  3  2  0  0  0  0
  3  4  1  0  0  0  0
  3 48  1  0  0  0  0
  4 19  1  0  0  0  0
  4  5  2  0  0  0  0
  5  6  1  0  0  0  0
  5 49  1  0  0  0  0
  6  7  1  0  0  0  0
  6 42  2  0  0  0  0
  7  8  1  0  0  0  0
  7 50  1  0  0  0  0
  8  9  1  0  0  0  0
  8 51  1  0  0  0  0
  8 52  1  0  0  0  0
  9 10  2  0  0  0  0
  9 53  1  0  0  0  0
 10 11  1  0  0  0  0
 10 54  1  0  0  0  0
 11 12  1  0  0  0  0
 11 55  1  0  0  0  0
 11 56  1  0  0  0  0
 12 13  1  0  0  0  0
 13 40  1  0  0  0  0
 13 14  2  0  0  0  0
 14 15  1  0  0  0  0
 14 57  1  0  0  0  0
 15 16  1  0  0  0  0
 15 38  2  0  0  0  0
 16 17  1  0  0  0  0
 16 58  1  0  0  0  0
 16 59  1  0  0  0  0
 17 43  1  1  0  0  0
 17 18  1  0  0  0  0
 17 21  1  0  0  0  0
 18 19  1  0  0  0  0
 18 60  1  0  0  0  0
 19 20  2  0  0  0  0
 21 44  1  6  0  0  0
 21 22  1  0  0  0  0
 21 23  1  0  0  0  0
 22 61  1  0  0  0  0
 23 24  1  0  0  0  0
 23 62  1  0  0  0  0
 23 63  1  0  0  0  0
 24 25  1  0  0  0  0
 24 64  1  0  0  0  0
 25 27  1  0  0  0  0
 25 26  1  0  0  0  0
 25 28  1  0  0  0  0
 26 27  1  0  0  0  0
 26 65  1  0  0  0  0
 26 66  1  0  0  0  0
 27 67  1  0  0  0  0
 27 68  1  0  0  0  0
 28 33  1  0  0  0  0
 28 29  2  0  0  0  0
 29 30  1  0  0  0  0
 29 69  1  0  0  0  0
 30 31  2  0  0  0  0
 30 34  1  0  0  0  0
 31 32  1  0  0  0  0
 31 70  1  0  0  0  0
 32 33  2  0  0  0  0
 32 71  1  0  0  0  0
 33 72  1  0  0  0  0
 34 35  1  0  0  0  0
 34 36  1  0  0  0  0
 34 37  1  0  0  0  0
 35 73  1  0  0  0  0
 35 74  1  0  0  0  0
 35 75  1  0  0  0  0
 36 76  1  0  0  0  0
 36 77  1  0  0  0  0
 36 78  1  0  0  0  0
 37 79  1  0  0  0  0
 37 80  1  0  0  0  0
 37 81  1  0  0  0  0
 38 39  1  0  0  0  0
 38 82  1  0  0  0  0
 39 40  2  0  0  0  0
 39 83  1  0  0  0  0
 40 41  1  0  0  0  0
M  END
>  <s_m_source_file>
BACE_102.smi

>  <i_m_source_file_index>
1

>  <i_lp_mmshare_version>
42013

>  <i_f3d_flags>
0

>  <s_epik_input>
YzEyW2NIXWMoW0NIM10pbmMoW2NIXTEpW05IXVtDSDJdL1tDSF09W0NIXS9bQ0gyXU9jM1tjSF1jKFtjSF1bY0hdYzNGKVtDSDJdW0NASF0oW05IXUMyPU8pW0NASF0oW09IXSlbQ0gyXVtOSF1DNChbQ0gyXVtDSDJdNCljNVtjSF1jKEMoW0NIM10pKFtDSDNdKVtDSDNdKVtjSF1bY0hdW2NIXTU=

>  <s_epik_cmdline>
J2VwaWtfcHl0aG9uJywgJy1waCcsICc3LjAnLCAnLXRuJywgJzgnLCAnLW1hJywgJzIwMCcsICctaW1hZScsICc8aW5maWxlLm1hZT4nLCAnLW9tYWUnLCAnPG91dGZpbGUubWFlPic=

>  <r_lp_tautomer_probability>
1

>  <r_epik_Ionization_Penalty>
0.3206

>  <r_epik_Ionization_Penalty_Charging>
0.0000

>  <r_epik_Ionization_Penalty_Neutral>
0.3206

>  <r_epik_State_Penalty>
0.3306

>  <r_epik_Charging_Adjusted_Penalty>
0.330633

>  <i_epik_Tot_Q>
0

>  <i_epik_Tot_abs_Q>
0

>  <s_lp_Force_Field>
OPLS_2005

>  <r_lp_Energy>
38.0869

>  <b_lp_Chiralities_Consistent>
1

>  <s_lp_Variant>
BACE_102.smi:1-1

>  <chiral flag>
1

>  <version>
0

>  <s_i_glide_gridfile>
second_dock_grid_2

>  <i_i_glide_lignum>
208

>  <i_i_glide_rotatable_bonds>
7

>  <r_i_docking_score>
-3.39995

>  <r_i_glide_ligand_efficiency>
-0.0809513

>  <r_i_glide_ligand_efficiency_sa>
-0.281389

>  <r_i_glide_ligand_efficiency_ln>
-0.717643

>  <r_glide_XP_GScore>
-3.73055

>  <r_i_glide_gscore>
-3.73055

>  <r_i_glide_evdw>
-41.9225

>  <r_i_glide_ecoul>
-7.07254

>  <r_i_glide_energy>
-48.995

>  <r_i_glide_einternal>
5.24227

>  <r_i_glide_emodel>
-68.0365

>  <r_glide_XP_HBond>
-1.92405

>  <i_i_glide_confnum>
1

>  <i_i_glide_posenum>
5

>  <r_i_glide_eff_state_penalty>
0.3306

>  <i_glide_XP_PoseRank>
1

$$$$
