BACE_32.smi:1
 OpenBabel09291822493D
Structure written by MMmdl.
 82 83  0  0  1  0  0  0  0  0999 V2000
   20.7718   38.7992   -6.8386 C   0  0  0  0  0  0  0  0  0  0  0  0
   20.2333   39.0572   -8.2524 C   0  0  0  0  0  0  0  0  0  0  0  0
   21.1653   38.4408   -9.3169 C   0  0  0  0  0  0  0  0  0  0  0  0
   18.7631   38.6515   -8.3855 C   0  0  0  0  0  0  0  0  0  0  0  0
   18.3274   37.6921   -9.3260 C   0  0  0  0  0  0  0  0  0  0  0  0
   16.9634   37.3784   -9.4455 C   0  0  0  0  0  0  0  0  0  0  0  0
   16.0125   38.0328   -8.6471 C   0  0  0  0  0  0  0  0  0  0  0  0
   16.4251   38.9819   -7.6966 C   0  0  0  0  0  0  0  0  0  0  0  0
   15.3855   39.7246   -6.8673 C   0  0  0  0  0  0  0  0  0  0  0  0
   15.6574   41.1777   -6.8395 N   0  3  0  0  0  0  0  0  0  0  0  0
   15.7556   41.8690   -8.1398 C   0  0  0  0  0  0  0  0  0  0  0  0
   16.6888   43.1051   -8.0777 C   0  0  1  0  0  0  0  0  0  0  0  0
   17.8228   42.8778   -7.2522 O   0  0  0  0  0  0  0  0  0  0  0  0
   17.1995   43.5242   -9.4827 C   0  0  2  0  0  0  0  0  0  0  0  0
   18.1997   42.5115  -10.1184 C   0  0  0  0  0  0  0  0  0  0  0  0
   18.6183   42.7616  -11.5914 C   0  0  2  0  0  0  0  0  0  0  0  0
   17.3998   42.8634  -12.5203 C   0  0  0  0  0  0  0  0  0  0  0  0
   19.5530   41.6388  -12.1156 C   0  0  0  0  0  0  0  0  0  0  0  0
   20.8900   41.4663  -11.3693 C   0  0  0  0  0  0  0  0  0  0  0  0
   21.8148   42.6898  -11.4189 C   0  0  0  0  0  0  0  0  0  0  0  0
   23.0368   42.5373  -10.4964 C   0  0  0  0  0  0  0  0  0  0  0  0
   23.9876   43.7506  -10.5107 C   0  0  0  0  0  0  0  0  0  0  0  0
   23.3239   45.1185  -10.2426 C   0  0  0  0  0  0  0  0  0  0  0  0
   22.5588   45.2019   -8.9028 C   0  0  0  0  0  0  0  0  0  0  0  0
   21.8735   46.5594   -8.6406 C   0  0  0  0  0  0  0  0  0  0  0  0
   20.5343   46.7384   -9.3895 C   0  0  0  0  0  0  0  0  0  0  0  0
   20.5262   46.5869  -10.6087 O   0  0  0  0  0  0  0  0  0  0  0  0
   19.4034   47.0632   -8.7118 N   0  0  0  0  0  0  0  0  0  0  0  0
   19.3533   47.2021   -7.2547 C   0  0  0  0  0  0  0  0  0  0  0  0
   18.1270   47.2870   -9.4234 C   0  0  0  0  0  0  0  0  0  0  0  0
   17.2824   46.0229   -9.6648 C   0  0  0  0  0  0  0  0  0  0  0  0
   16.1293   46.1390  -10.0813 O   0  0  0  0  0  0  0  0  0  0  0  0
   17.8336   44.8333   -9.3887 N   0  0  0  0  0  0  0  0  0  0  0  0
   17.8015   39.2774   -7.5613 C   0  0  0  0  0  0  0  0  0  0  0  0
   16.1280   43.9316   -7.6403 H   0  0  0  0  0  0  0  0  0  0  0  0
   16.3220   43.5965  -10.1279 H   0  0  0  0  0  0  0  0  0  0  0  0
   19.1322   43.7197  -11.6514 H   0  0  0  0  0  0  0  0  0  0  0  0
   20.2366   39.3844   -6.0899 H   0  0  0  0  0  0  0  0  0  0  0  0
   21.8275   39.0653   -6.7619 H   0  0  0  0  0  0  0  0  0  0  0  0
   20.6708   37.7492   -6.5699 H   0  0  0  0  0  0  0  0  0  0  0  0
   20.2543   40.1376   -8.4012 H   0  0  0  0  0  0  0  0  0  0  0  0
   20.8330   38.6866  -10.3261 H   0  0  0  0  0  0  0  0  0  0  0  0
   21.2121   37.3544   -9.2371 H   0  0  0  0  0  0  0  0  0  0  0  0
   22.1860   38.8161   -9.2090 H   0  0  0  0  0  0  0  0  0  0  0  0
   19.0248   37.1873   -9.9759 H   0  0  0  0  0  0  0  0  0  0  0  0
   16.6362   36.6424  -10.1633 H   0  0  0  0  0  0  0  0  0  0  0  0
   14.9631   37.7914   -8.7562 H   0  0  0  0  0  0  0  0  0  0  0  0
   15.3969   39.3501   -5.8442 H   0  0  0  0  0  0  0  0  0  0  0  0
   14.3827   39.5496   -7.2626 H   0  0  0  0  0  0  0  0  0  0  0  0
   16.5523   41.2719   -6.3703 H   0  0  0  0  0  0  0  0  0  0  0  0
   14.7567   42.1623   -8.4636 H   0  0  0  0  0  0  0  0  0  0  0  0
   16.1048   41.1745   -8.8972 H   0  0  0  0  0  0  0  0  0  0  0  0
   17.5625   42.7838   -6.3457 H   0  0  0  0  0  0  0  0  0  0  0  0
   19.0991   42.4984   -9.4993 H   0  0  0  0  0  0  0  0  0  0  0  0
   17.8035   41.4979  -10.0681 H   0  0  0  0  0  0  0  0  0  0  0  0
   17.7035   42.9649  -13.5627 H   0  0  0  0  0  0  0  0  0  0  0  0
   16.7814   43.7311  -12.2912 H   0  0  0  0  0  0  0  0  0  0  0  0
   16.7903   41.9638  -12.4337 H   0  0  0  0  0  0  0  0  0  0  0  0
   19.0154   40.6897  -12.0710 H   0  0  0  0  0  0  0  0  0  0  0  0
   19.7595   41.7852  -13.1747 H   0  0  0  0  0  0  0  0  0  0  0  0
   21.4210   40.6132  -11.7943 H   0  0  0  0  0  0  0  0  0  0  0  0
   20.6955   41.2016  -10.3336 H   0  0  0  0  0  0  0  0  0  0  0  0
   22.1511   42.8652  -12.4398 H   0  0  0  0  0  0  0  0  0  0  0  0
   21.2569   43.5718  -11.1119 H   0  0  0  0  0  0  0  0  0  0  0  0
   23.5993   41.6478  -10.7876 H   0  0  0  0  0  0  0  0  0  0  0  0
   22.7032   42.3514   -9.4751 H   0  0  0  0  0  0  0  0  0  0  0  0
   24.7807   43.5840   -9.7796 H   0  0  0  0  0  0  0  0  0  0  0  0
   24.4868   43.7942  -11.4804 H   0  0  0  0  0  0  0  0  0  0  0  0
   22.6677   45.3598  -11.0788 H   0  0  0  0  0  0  0  0  0  0  0  0
   24.1000   45.8863  -10.2530 H   0  0  0  0  0  0  0  0  0  0  0  0
   21.8108   44.4114   -8.8426 H   0  0  0  0  0  0  0  0  0  0  0  0
   23.2586   44.9995   -8.0924 H   0  0  0  0  0  0  0  0  0  0  0  0
   22.5378   47.3736   -8.9270 H   0  0  0  0  0  0  0  0  0  0  0  0
   21.7510   46.6591   -7.5662 H   0  0  0  0  0  0  0  0  0  0  0  0
   19.9166   48.0778   -6.9334 H   0  0  0  0  0  0  0  0  0  0  0  0
   19.7591   46.3196   -6.7590 H   0  0  0  0  0  0  0  0  0  0  0  0
   18.3282   47.3117   -6.8880 H   0  0  0  0  0  0  0  0  0  0  0  0
   17.5152   48.0057   -8.8759 H   0  0  0  0  0  0  0  0  0  0  0  0
   18.3071   47.7594  -10.3911 H   0  0  0  0  0  0  0  0  0  0  0  0
   18.7799   44.8353   -9.0384 H   0  0  0  0  0  0  0  0  0  0  0  0
   18.1242   40.0137   -6.8412 H   0  0  0  0  0  0  0  0  0  0  0  0
   14.9621   41.6250   -6.2489 H   0  0  0  0  0  0  0  0  0  0  0  0
  1  2  1  0  0  0  0
  1 38  1  0  0  0  0
  1 39  1  0  0  0  0
  1 40  1  0  0  0  0
  2  3  1  0  0  0  0
  2  4  1  0  0  0  0
  2 41  1  0  0  0  0
  3 42  1  0  0  0  0
  3 43  1  0  0  0  0
  3 44  1  0  0  0  0
  4 34  1  0  0  0  0
  4  5  2  0  0  0  0
  5  6  1  0  0  0  0
  5 45  1  0  0  0  0
  6  7  2  0  0  0  0
  6 46  1  0  0  0  0
  7  8  1  0  0  0  0
  7 47  1  0  0  0  0
  8  9  1  0  0  0  0
  8 34  2  0  0  0  0
  9 10  1  0  0  0  0
  9 48  1  0  0  0  0
  9 49  1  0  0  0  0
 10 11  1  0  0  0  0
 10 50  1  0  0  0  0
 10 82  1  0  0  0  0
 11 12  1  0  0  0  0
 11 51  1  0  0  0  0
 11 52  1  0  0  0  0
 12 35  1  1  0  0  0
 12 13  1  0  0  0  0
 12 14  1  0  0  0  0
 13 53  1  0  0  0  0
 14 36  1  6  0  0  0
 14 33  1  0  0  0  0
 14 15  1  0  0  0  0
 15 16  1  0  0  0  0
 15 54  1  0  0  0  0
 15 55  1  0  0  0  0
 16 37  1  6  0  0  0
 16 17  1  0  0  0  0
 16 18  1  0  0  0  0
 17 56  1  0  0  0  0
 17 57  1  0  0  0  0
 17 58  1  0  0  0  0
 18 19  1  0  0  0  0
 18 59  1  0  0  0  0
 18 60  1  0  0  0  0
 19 20  1  0  0  0  0
 19 61  1  0  0  0  0
 19 62  1  0  0  0  0
 20 21  1  0  0  0  0
 20 63  1  0  0  0  0
 20 64  1  0  0  0  0
 21 22  1  0  0  0  0
 21 65  1  0  0  0  0
 21 66  1  0  0  0  0
 22 23  1  0  0  0  0
 22 67  1  0  0  0  0
 22 68  1  0  0  0  0
 23 24  1  0  0  0  0
 23 69  1  0  0  0  0
 23 70  1  0  0  0  0
 24 25  1  0  0  0  0
 24 71  1  0  0  0  0
 24 72  1  0  0  0  0
 25 26  1  0  0  0  0
 25 73  1  0  0  0  0
 25 74  1  0  0  0  0
 26 27  2  0  0  0  0
 26 28  1  0  0  0  0
 28 29  1  0  0  0  0
 28 30  1  0  0  0  0
 29 75  1  0  0  0  0
 29 76  1  0  0  0  0
 29 77  1  0  0  0  0
 30 31  1  0  0  0  0
 30 78  1  0  0  0  0
 30 79  1  0  0  0  0
 31 32  2  0  0  0  0
 31 33  1  0  0  0  0
 33 80  1  0  0  0  0
 34 81  1  0  0  0  0
M  CHG  1  10   1
M  END
>  <s_m_source_file>
BACE_32.smi

>  <i_m_source_file_index>
1

>  <i_lp_mmshare_version>
42013

>  <i_f3d_flags>
0

>  <s_epik_input>
W0NIM11bQ0hdKFtDSDNdKWMxW2NIXVtjSF1bY0hdYyhbY0hdMSlbQ0gyXVtOSF1bQ0gyXVtDQEBIXShbT0hdKVtDQEBIXTJbQ0gyXVtDQEhdKFtDSDNdKVtDSDJdW0NIMl1bQ0gyXVtDSDJdW0NIMl1bQ0gyXVtDSDJdW0NIMl1DKD1PKU4oW0NIM10pW0NIMl1DKD1PKVtOSF0y

>  <s_epik_cmdline>
J2VwaWtfcHl0aG9uJywgJy1waCcsICc3LjAnLCAnLXRuJywgJzgnLCAnLW1hJywgJzIwMCcsICctaW1hZScsICc8aW5maWxlLm1hZT4nLCAnLW9tYWUnLCAnPG91dGZpbGUubWFlPic=

>  <r_epik_Ionization_Penalty>
0.0182

>  <r_epik_Ionization_Penalty_Charging>
0.0182

>  <r_epik_Ionization_Penalty_Neutral>
0.0000

>  <r_epik_State_Penalty>
0.0144

>  <r_epik_Charging_Adjusted_Penalty>
0.0325934

>  <i_epik_Tot_Q>
1

>  <i_epik_Tot_abs_Q>
1

>  <s_lp_Force_Field>
OPLS_2005

>  <r_lp_Energy>
19.9006

>  <b_lp_Chiralities_Consistent>
1

>  <s_lp_Variant>
BACE_32.smi:1-1

>  <chiral flag>
1

>  <version>
0

>  <s_i_glide_gridfile>
second_dock_grid_2

>  <i_i_glide_lignum>
55

>  <i_i_glide_rotatable_bonds>
7

>  <r_i_docking_score>
-5.37607

>  <r_i_glide_ligand_efficiency>
-0.15812

>  <r_i_glide_ligand_efficiency_sa>
-0.512247

>  <r_i_glide_ligand_efficiency_ln>
-1.18773

>  <r_glide_XP_GScore>
-5.39047

>  <r_i_glide_gscore>
-5.39047

>  <r_i_glide_evdw>
-32.1593

>  <r_i_glide_ecoul>
-12.9993

>  <r_i_glide_energy>
-45.1586

>  <r_i_glide_einternal>
15.5728

>  <r_i_glide_emodel>
-56.741

>  <r_glide_XP_HBond>
-0.507459

>  <i_i_glide_confnum>
1

>  <i_i_glide_posenum>
7

>  <r_i_glide_eff_state_penalty>
0.0144

>  <i_glide_XP_PoseRank>
1

$$$$
