BACE_147.smi:1
 OpenBabel09291822493D
Structure written by MMmdl.
 79 79  0  0  1  0  0  0  0  0999 V2000
   20.9748   42.3124   -5.0254 C   0  0  0  0  0  0  0  0  0  0  0  0
   20.6813   43.8024   -5.2344 C   0  0  0  0  0  0  0  0  0  0  0  0
   20.0240   44.0866   -6.5916 C   0  0  0  0  0  0  0  0  0  0  0  0
   19.7821   45.5831   -6.8365 C   0  0  0  0  0  0  0  0  0  0  0  0
   19.1733   45.7751   -8.1451 N   0  0  0  0  0  0  0  0  0  0  0  0
   18.2985   46.7393   -8.4642 C   0  0  0  0  0  0  0  0  0  0  0  0
   18.0138   47.6733   -7.7126 O   0  0  0  0  0  0  0  0  0  0  0  0
   17.6089   46.6003   -9.8323 C   0  0  2  0  0  0  0  0  0  0  0  0
   17.7889   47.8929  -10.6459 C   0  0  0  0  0  0  0  0  0  0  0  0
   16.1071   46.2363   -9.7131 C   0  0  0  0  0  0  0  0  0  0  0  0
   15.6622   44.9300   -8.9877 C   0  0  2  0  0  0  0  0  0  0  0  0
   16.0747   44.9498   -7.6400 O   0  0  0  0  0  0  0  0  0  0  0  0
   15.9627   43.5596   -9.6570 C   0  0  2  0  0  0  0  0  0  0  0  0
   15.3551   42.3785   -8.8523 C   0  0  0  0  0  0  0  0  0  0  0  0
   15.5158   40.9643   -9.4612 C   0  0  2  0  0  0  0  0  0  0  0  0
   14.7264   40.8061  -10.7711 C   0  0  0  0  0  0  0  0  0  0  0  0
   15.1154   39.8936   -8.4148 C   0  0  0  0  0  0  0  0  0  0  0  0
   15.3635   38.4216   -8.8053 C   0  0  0  0  0  0  0  0  0  0  0  0
   16.7839   38.0970   -9.3011 C   0  0  0  0  0  0  0  0  0  0  0  0
   17.8914   38.4474   -8.2893 C   0  0  0  0  0  0  0  0  0  0  0  0
   19.3108   38.0285   -8.7318 C   0  0  2  0  0  0  0  0  0  0  0  0
   20.3440   38.3467   -7.6387 C   0  0  0  0  0  0  0  0  0  0  0  0
   19.7479   38.5643  -10.1124 C   0  0  0  0  0  0  0  0  0  0  0  0
   19.8129   40.0968  -10.2086 C   0  0  0  0  0  0  0  0  0  0  0  0
   20.1110   40.5999  -11.6256 C   0  0  0  0  0  0  0  0  0  0  0  0
   20.4858   39.8262  -12.5007 O   0  0  0  0  0  0  0  0  0  0  0  0
   19.9630   41.9034  -11.8940 N   0  0  0  0  0  0  0  0  0  0  0  0
   19.5400   42.9564  -10.9748 C   0  0  1  0  0  0  0  0  0  0  0  0
   20.1964   44.2639  -11.4499 C   0  0  0  0  0  0  0  0  0  0  0  0
   18.0098   43.1256  -11.0344 C   0  0  0  0  0  0  0  0  0  0  0  0
   17.4115   43.0632  -12.1121 O   0  0  0  0  0  0  0  0  0  0  0  0
   17.3958   43.3609   -9.8620 N   0  0  0  0  0  0  0  0  0  0  0  0
   18.1029   45.8214  -10.4012 H   0  0  0  0  0  0  0  0  0  0  0  0
   14.5750   44.9889   -8.9332 H   0  0  0  0  0  0  0  0  0  0  0  0
   15.4638   43.5873  -10.6259 H   0  0  0  0  0  0  0  0  0  0  0  0
   16.5699   40.8207   -9.6887 H   0  0  0  0  0  0  0  0  0  0  0  0
   19.2879   36.9494   -8.8399 H   0  0  0  0  0  0  0  0  0  0  0  0
   19.8712   42.7425   -9.9571 H   0  0  0  0  0  0  0  0  0  0  0  0
   21.4213   42.1364   -4.0463 H   0  0  0  0  0  0  0  0  0  0  0  0
   21.6665   41.9385   -5.7819 H   0  0  0  0  0  0  0  0  0  0  0  0
   20.0621   41.7183   -5.0862 H   0  0  0  0  0  0  0  0  0  0  0  0
   21.6114   44.3659   -5.1466 H   0  0  0  0  0  0  0  0  0  0  0  0
   20.0335   44.1539   -4.4310 H   0  0  0  0  0  0  0  0  0  0  0  0
   19.0756   43.5489   -6.6482 H   0  0  0  0  0  0  0  0  0  0  0  0
   20.6545   43.6852   -7.3867 H   0  0  0  0  0  0  0  0  0  0  0  0
   20.7209   46.1366   -6.8007 H   0  0  0  0  0  0  0  0  0  0  0  0
   19.1384   45.9844   -6.0520 H   0  0  0  0  0  0  0  0  0  0  0  0
   19.3658   45.0719   -8.8406 H   0  0  0  0  0  0  0  0  0  0  0  0
   17.4022   47.7732  -11.6581 H   0  0  0  0  0  0  0  0  0  0  0  0
   18.8420   48.1628  -10.7316 H   0  0  0  0  0  0  0  0  0  0  0  0
   17.2653   48.7338  -10.1890 H   0  0  0  0  0  0  0  0  0  0  0  0
   15.6690   46.2287  -10.7123 H   0  0  0  0  0  0  0  0  0  0  0  0
   15.6485   47.0776   -9.1974 H   0  0  0  0  0  0  0  0  0  0  0  0
   15.6603   44.2473   -7.1465 H   0  0  0  0  0  0  0  0  0  0  0  0
   15.8139   42.3681   -7.8620 H   0  0  0  0  0  0  0  0  0  0  0  0
   14.2947   42.5617   -8.6772 H   0  0  0  0  0  0  0  0  0  0  0  0
   14.8639   39.8151  -11.2014 H   0  0  0  0  0  0  0  0  0  0  0  0
   15.0544   41.5227  -11.5214 H   0  0  0  0  0  0  0  0  0  0  0  0
   13.6596   40.9486  -10.6063 H   0  0  0  0  0  0  0  0  0  0  0  0
   15.6495   40.0850   -7.4831 H   0  0  0  0  0  0  0  0  0  0  0  0
   14.0595   40.0050   -8.1663 H   0  0  0  0  0  0  0  0  0  0  0  0
   14.6416   38.1238   -9.5654 H   0  0  0  0  0  0  0  0  0  0  0  0
   15.1472   37.7971   -7.9353 H   0  0  0  0  0  0  0  0  0  0  0  0
   16.9560   38.6101  -10.2465 H   0  0  0  0  0  0  0  0  0  0  0  0
   16.8356   37.0315   -9.5275 H   0  0  0  0  0  0  0  0  0  0  0  0
   17.8773   39.5148   -8.0701 H   0  0  0  0  0  0  0  0  0  0  0  0
   17.6604   37.9556   -7.3423 H   0  0  0  0  0  0  0  0  0  0  0  0
   21.3587   38.1228   -7.9690 H   0  0  0  0  0  0  0  0  0  0  0  0
   20.1546   37.7509   -6.7436 H   0  0  0  0  0  0  0  0  0  0  0  0
   20.3138   39.3977   -7.3513 H   0  0  0  0  0  0  0  0  0  0  0  0
   19.0775   38.1733  -10.8780 H   0  0  0  0  0  0  0  0  0  0  0  0
   20.7267   38.1509  -10.3637 H   0  0  0  0  0  0  0  0  0  0  0  0
   18.8639   40.5175   -9.8867 H   0  0  0  0  0  0  0  0  0  0  0  0
   20.5786   40.4807   -9.5353 H   0  0  0  0  0  0  0  0  0  0  0  0
   20.1645   42.1864  -12.8397 H   0  0  0  0  0  0  0  0  0  0  0  0
   20.1288   45.0435  -10.6929 H   0  0  0  0  0  0  0  0  0  0  0  0
   19.7404   44.6444  -12.3650 H   0  0  0  0  0  0  0  0  0  0  0  0
   21.2606   44.1174  -11.6417 H   0  0  0  0  0  0  0  0  0  0  0  0
   17.9579   43.3764   -9.0239 H   0  0  0  0  0  0  0  0  0  0  0  0
  1  2  1  0  0  0  0
  1 39  1  0  0  0  0
  1 40  1  0  0  0  0
  1 41  1  0  0  0  0
  2  3  1  0  0  0  0
  2 42  1  0  0  0  0
  2 43  1  0  0  0  0
  3  4  1  0  0  0  0
  3 44  1  0  0  0  0
  3 45  1  0  0  0  0
  4  5  1  0  0  0  0
  4 46  1  0  0  0  0
  4 47  1  0  0  0  0
  5  6  1  0  0  0  0
  5 48  1  0  0  0  0
  6  7  2  0  0  0  0
  6  8  1  0  0  0  0
  8 33  1  6  0  0  0
  8  9  1  0  0  0  0
  8 10  1  0  0  0  0
  9 49  1  0  0  0  0
  9 50  1  0  0  0  0
  9 51  1  0  0  0  0
 10 11  1  0  0  0  0
 10 52  1  0  0  0  0
 10 53  1  0  0  0  0
 11 34  1  1  0  0  0
 11 12  1  0  0  0  0
 11 13  1  0  0  0  0
 12 54  1  0  0  0  0
 13 35  1  6  0  0  0
 13 32  1  0  0  0  0
 13 14  1  0  0  0  0
 14 15  1  0  0  0  0
 14 55  1  0  0  0  0
 14 56  1  0  0  0  0
 15 36  1  6  0  0  0
 15 16  1  0  0  0  0
 15 17  1  0  0  0  0
 16 57  1  0  0  0  0
 16 58  1  0  0  0  0
 16 59  1  0  0  0  0
 17 18  1  0  0  0  0
 17 60  1  0  0  0  0
 17 61  1  0  0  0  0
 18 19  1  0  0  0  0
 18 62  1  0  0  0  0
 18 63  1  0  0  0  0
 19 20  1  0  0  0  0
 19 64  1  0  0  0  0
 19 65  1  0  0  0  0
 20 21  1  0  0  0  0
 20 66  1  0  0  0  0
 20 67  1  0  0  0  0
 21 37  1  6  0  0  0
 21 22  1  0  0  0  0
 21 23  1  0  0  0  0
 22 68  1  0  0  0  0
 22 69  1  0  0  0  0
 22 70  1  0  0  0  0
 23 24  1  0  0  0  0
 23 71  1  0  0  0  0
 23 72  1  0  0  0  0
 24 25  1  0  0  0  0
 24 73  1  0  0  0  0
 24 74  1  0  0  0  0
 25 26  2  0  0  0  0
 25 27  1  0  0  0  0
 27 28  1  0  0  0  0
 27 75  1  0  0  0  0
 28 38  1  1  0  0  0
 28 29  1  0  0  0  0
 28 30  1  0  0  0  0
 29 76  1  0  0  0  0
 29 77  1  0  0  0  0
 29 78  1  0  0  0  0
 30 31  2  0  0  0  0
 30 32  1  0  0  0  0
 32 79  1  0  0  0  0
M  END
>  <s_m_source_file>
BACE_147.smi

>  <i_m_source_file_index>
1

>  <i_lp_mmshare_version>
42013

>  <i_f3d_flags>
0

>  <s_epik_input>
W0NIM11bQ0gyXVtDSDJdW0NIMl1bTkhdQyg9TylbQ0BIXShbQ0gzXSlbQ0gyXVtDQEhdKFtPSF0pW0NAQEhdMVtDSDJdW0NASF0oW0NIM10pW0NIMl1bQ0gyXVtDSDJdW0NIMl1bQ0BIXShbQ0gzXSlbQ0gyXVtDSDJdQyg9TylbTkhdW0NAQEhdKFtDSDNdKUMoPU8pW05IXTE=

>  <s_epik_cmdline>
J2VwaWtfcHl0aG9uJywgJy1waCcsICc3LjAnLCAnLXRuJywgJzgnLCAnLW1hJywgJzIwMCcsICctaW1hZScsICc8aW5maWxlLm1hZT4nLCAnLW9tYWUnLCAnPG91dGZpbGUubWFlPic=

>  <r_lp_tautomer_probability>
1

>  <r_epik_Ionization_Penalty>
0.0000

>  <r_epik_Ionization_Penalty_Charging>
0.0000

>  <r_epik_Ionization_Penalty_Neutral>
0.0000

>  <r_epik_State_Penalty>
-0.0000

>  <r_epik_Charging_Adjusted_Penalty>
0

>  <i_epik_Tot_Q>
0

>  <i_epik_Tot_abs_Q>
0

>  <s_lp_Force_Field>
OPLS_2005

>  <r_lp_Energy>
16.1888

>  <b_lp_Chiralities_Consistent>
1

>  <s_lp_Variant>
BACE_147.smi:1-1

>  <chiral flag>
1

>  <version>
0

>  <s_i_glide_gridfile>
second_dock_grid_2

>  <i_i_glide_lignum>
300

>  <i_i_glide_rotatable_bonds>
9

>  <r_i_docking_score>
-3.59612

>  <r_i_glide_ligand_efficiency>
-0.112379

>  <r_i_glide_ligand_efficiency_sa>
-0.35678

>  <r_i_glide_ligand_efficiency_ln>
-0.805268

>  <r_glide_XP_GScore>
-3.59612

>  <r_i_glide_gscore>
-3.59612

>  <r_i_glide_evdw>
-33.1574

>  <r_i_glide_ecoul>
-7.57142

>  <r_i_glide_energy>
-40.7288

>  <r_i_glide_einternal>
6.11193

>  <r_i_glide_emodel>
-55.3715

>  <r_glide_XP_HBond>
-1.00437

>  <i_i_glide_confnum>
1

>  <i_i_glide_posenum>
2

>  <r_i_glide_eff_state_penalty>
-0

>  <i_glide_XP_PoseRank>
1

$$$$
