BACE_135.smi:1
 OpenBabel09291822493D
Structure written by MMmdl.
 86 89  0  0  1  0  0  0  0  0999 V2000
   19.9529   46.4300   -6.2291 C   0  0  0  0  0  0  0  0  0  0  0  0
   18.8008   47.4303   -6.2837 C   0  0  0  0  0  0  0  0  0  0  0  0
   18.1964   47.7499   -5.2557 O   0  0  0  0  0  0  0  0  0  0  0  0
   18.3802   47.9991   -7.6464 C   0  0  0  0  0  0  0  0  0  0  0  0
   18.9032   47.2339   -8.7331 O   0  0  0  0  0  0  0  0  0  0  0  0
   18.1980   46.1312   -9.1718 C   0  0  0  0  0  0  0  0  0  0  0  0
   17.0979   45.5710   -8.4797 C   0  0  0  0  0  0  0  0  0  0  0  0
   16.4382   44.4251   -8.9620 C   0  0  0  0  0  0  0  0  0  0  0  0
   16.8689   43.8310  -10.1710 C   0  0  0  0  0  0  0  0  0  0  0  0
   17.9376   44.4013  -10.8938 C   0  0  0  0  0  0  0  0  0  0  0  0
   18.5991   45.5387  -10.3840 C   0  0  0  0  0  0  0  0  0  0  0  0
   18.2901   43.8920  -12.2584 C   0  0  0  0  0  0  0  0  0  0  0  0
   18.0602   44.5909  -13.2396 O   0  0  0  0  0  0  0  0  0  0  0  0
   18.8472   42.6793  -12.4051 N   0  0  0  0  0  0  0  0  0  0  0  0
   19.2336   41.6763  -11.4182 C   0  0  1  0  0  0  0  0  0  0  0  0
   18.5655   40.3400  -11.8205 C   0  0  0  0  0  0  0  0  0  0  0  0
   18.1034   39.4722  -10.6701 C   0  0  0  0  0  0  0  0  0  0  0  0
   16.9113   39.8053  -10.0003 C   0  0  0  0  0  0  0  0  0  0  0  0
   16.4602   39.0177   -8.9268 C   0  0  0  0  0  0  0  0  0  0  0  0
   15.2212   39.4181   -8.1601 C   0  0  0  0  0  0  0  0  0  0  0  0
   15.5609   40.3980   -7.0298 C   0  0  0  0  0  0  0  0  0  0  0  0
   16.1007   41.7683   -7.4883 C   0  0  0  0  0  0  0  0  0  0  0  0
   15.0346   42.6135   -8.2113 C   0  0  0  0  0  0  0  0  0  0  0  0
   15.3590   43.9968   -8.2311 O   0  0  0  0  0  0  0  0  0  0  0  0
   17.1884   37.8781   -8.5384 C   0  0  0  0  0  0  0  0  0  0  0  0
   18.3452   37.5085   -9.2403 C   0  0  0  0  0  0  0  0  0  0  0  0
   18.8077   38.3045  -10.3032 C   0  0  0  0  0  0  0  0  0  0  0  0
   20.7820   41.6020  -11.3748 C   0  0  2  0  0  0  0  0  0  0  0  0
   21.2616   41.2952  -12.6760 O   0  0  0  0  0  0  0  0  0  0  0  0
   21.2568   40.5282  -10.3868 C   0  0  0  0  0  0  0  0  0  0  0  0
   22.6078   40.7597   -9.8414 N   0  3  0  0  0  0  0  0  0  0  0  0
   22.9901   39.7777   -8.8031 C   0  0  0  0  0  0  0  0  0  0  0  0
   22.1405   39.9180   -7.5578 C   0  0  0  0  0  0  0  0  0  0  0  0
   22.4165   40.9063   -6.5914 C   0  0  0  0  0  0  0  0  0  0  0  0
   21.5703   41.0117   -5.4608 C   0  0  0  0  0  0  0  0  0  0  0  0
   20.4599   40.1483   -5.4125 C   0  0  0  0  0  0  0  0  0  0  0  0
   20.2534   39.2139   -6.4410 C   0  0  0  0  0  0  0  0  0  0  0  0
   21.0897   39.0785   -7.4862 N   0  0  0  0  0  0  0  0  0  0  0  0
   21.8280   42.0404   -4.3521 C   0  0  0  0  0  0  0  0  0  0  0  0
   23.3287   42.1441   -4.0361 C   0  0  0  0  0  0  0  0  0  0  0  0
   21.1143   41.6757   -3.0275 C   0  0  0  0  0  0  0  0  0  0  0  0
   21.3072   43.4073   -4.8175 C   0  0  0  0  0  0  0  0  0  0  0  0
   18.8601   41.9722  -10.4359 H   0  0  0  0  0  0  0  0  0  0  0  0
   21.1657   42.5789  -11.0772 H   0  0  0  0  0  0  0  0  0  0  0  0
   19.7110   45.5307   -6.7997 H   0  0  0  0  0  0  0  0  0  0  0  0
   20.1512   46.1374   -5.1967 H   0  0  0  0  0  0  0  0  0  0  0  0
   20.8607   46.8741   -6.6409 H   0  0  0  0  0  0  0  0  0  0  0  0
   17.2957   48.0929   -7.7072 H   0  0  0  0  0  0  0  0  0  0  0  0
   18.7829   49.0081   -7.7239 H   0  0  0  0  0  0  0  0  0  0  0  0
   16.7432   45.9967   -7.5547 H   0  0  0  0  0  0  0  0  0  0  0  0
   16.3473   42.9813  -10.5849 H   0  0  0  0  0  0  0  0  0  0  0  0
   19.4091   45.9810  -10.9417 H   0  0  0  0  0  0  0  0  0  0  0  0
   19.0959   42.4279  -13.3492 H   0  0  0  0  0  0  0  0  0  0  0  0
   17.6794   40.5464  -12.4229 H   0  0  0  0  0  0  0  0  0  0  0  0
   19.2306   39.7505  -12.4450 H   0  0  0  0  0  0  0  0  0  0  0  0
   16.3530   40.6770  -10.3024 H   0  0  0  0  0  0  0  0  0  0  0  0
   14.4796   39.8454   -8.8365 H   0  0  0  0  0  0  0  0  0  0  0  0
   14.7596   38.5254   -7.7347 H   0  0  0  0  0  0  0  0  0  0  0  0
   14.6632   40.5495   -6.4394 H   0  0  0  0  0  0  0  0  0  0  0  0
   16.2793   39.9251   -6.3595 H   0  0  0  0  0  0  0  0  0  0  0  0
   16.4595   42.3021   -6.6060 H   0  0  0  0  0  0  0  0  0  0  0  0
   16.9920   41.6564   -8.1051 H   0  0  0  0  0  0  0  0  0  0  0  0
   14.8118   42.2291   -9.2056 H   0  0  0  0  0  0  0  0  0  0  0  0
   14.1013   42.5461   -7.6529 H   0  0  0  0  0  0  0  0  0  0  0  0
   16.8599   37.2916   -7.6947 H   0  0  0  0  0  0  0  0  0  0  0  0
   18.8682   36.6126   -8.9559 H   0  0  0  0  0  0  0  0  0  0  0  0
   19.6851   37.9934  -10.8459 H   0  0  0  0  0  0  0  0  0  0  0  0
   22.2128   41.3092  -12.7010 H   0  0  0  0  0  0  0  0  0  0  0  0
   20.5485   40.5147   -9.5589 H   0  0  0  0  0  0  0  0  0  0  0  0
   21.2316   39.5433  -10.8519 H   0  0  0  0  0  0  0  0  0  0  0  0
   23.2794   40.6954  -10.5951 H   0  0  0  0  0  0  0  0  0  0  0  0
   22.8590   38.7703   -9.2016 H   0  0  0  0  0  0  0  0  0  0  0  0
   24.0404   39.9034   -8.5359 H   0  0  0  0  0  0  0  0  0  0  0  0
   23.2578   41.5677   -6.7214 H   0  0  0  0  0  0  0  0  0  0  0  0
   19.7445   40.1654   -4.6065 H   0  0  0  0  0  0  0  0  0  0  0  0
   19.4094   38.5402   -6.4130 H   0  0  0  0  0  0  0  0  0  0  0  0
   23.5025   42.8045   -3.1854 H   0  0  0  0  0  0  0  0  0  0  0  0
   23.9093   42.5506   -4.8634 H   0  0  0  0  0  0  0  0  0  0  0  0
   23.7398   41.1664   -3.7812 H   0  0  0  0  0  0  0  0  0  0  0  0
   21.3860   40.6749   -2.6928 H   0  0  0  0  0  0  0  0  0  0  0  0
   20.0301   41.7196   -3.1187 H   0  0  0  0  0  0  0  0  0  0  0  0
   21.3821   42.3692   -2.2287 H   0  0  0  0  0  0  0  0  0  0  0  0
   21.4627   44.1512   -4.0407 H   0  0  0  0  0  0  0  0  0  0  0  0
   20.2384   43.3702   -5.0339 H   0  0  0  0  0  0  0  0  0  0  0  0
   21.8171   43.7479   -5.7200 H   0  0  0  0  0  0  0  0  0  0  0  0
   22.6522   41.6810   -9.4312 H   0  0  0  0  0  0  0  0  0  0  0  0
  1  2  1  0  0  0  0
  1 45  1  0  0  0  0
  1 46  1  0  0  0  0
  1 47  1  0  0  0  0
  2  3  2  0  0  0  0
  2  4  1  0  0  0  0
  4  5  1  0  0  0  0
  4 48  1  0  0  0  0
  4 49  1  0  0  0  0
  5  6  1  0  0  0  0
  6 11  1  0  0  0  0
  6  7  2  0  0  0  0
  7  8  1  0  0  0  0
  7 50  1  0  0  0  0
  8 24  1  0  0  0  0
  8  9  2  0  0  0  0
  9 10  1  0  0  0  0
  9 51  1  0  0  0  0
 10 11  2  0  0  0  0
 10 12  1  0  0  0  0
 11 52  1  0  0  0  0
 12 13  2  0  0  0  0
 12 14  1  0  0  0  0
 14 15  1  0  0  0  0
 14 53  1  0  0  0  0
 15 43  1  1  0  0  0
 15 16  1  0  0  0  0
 15 28  1  0  0  0  0
 16 17  1  0  0  0  0
 16 54  1  0  0  0  0
 16 55  1  0  0  0  0
 17 27  1  0  0  0  0
 17 18  2  0  0  0  0
 18 19  1  0  0  0  0
 18 56  1  0  0  0  0
 19 20  1  0  0  0  0
 19 25  2  0  0  0  0
 20 21  1  0  0  0  0
 20 57  1  0  0  0  0
 20 58  1  0  0  0  0
 21 22  1  0  0  0  0
 21 59  1  0  0  0  0
 21 60  1  0  0  0  0
 22 23  1  0  0  0  0
 22 61  1  0  0  0  0
 22 62  1  0  0  0  0
 23 24  1  0  0  0  0
 23 63  1  0  0  0  0
 23 64  1  0  0  0  0
 25 26  1  0  0  0  0
 25 65  1  0  0  0  0
 26 27  2  0  0  0  0
 26 66  1  0  0  0  0
 27 67  1  0  0  0  0
 28 44  1  1  0  0  0
 28 29  1  0  0  0  0
 28 30  1  0  0  0  0
 29 68  1  0  0  0  0
 30 31  1  0  0  0  0
 30 69  1  0  0  0  0
 30 70  1  0  0  0  0
 31 32  1  0  0  0  0
 31 71  1  0  0  0  0
 31 86  1  0  0  0  0
 32 33  1  0  0  0  0
 32 72  1  0  0  0  0
 32 73  1  0  0  0  0
 33 38  1  0  0  0  0
 33 34  2  0  0  0  0
 34 35  1  0  0  0  0
 34 74  1  0  0  0  0
 35 36  2  0  0  0  0
 35 39  1  0  0  0  0
 36 37  1  0  0  0  0
 36 75  1  0  0  0  0
 37 38  2  0  0  0  0
 37 76  1  0  0  0  0
 39 40  1  0  0  0  0
 39 41  1  0  0  0  0
 39 42  1  0  0  0  0
 40 77  1  0  0  0  0
 40 78  1  0  0  0  0
 40 79  1  0  0  0  0
 41 80  1  0  0  0  0
 41 81  1  0  0  0  0
 41 82  1  0  0  0  0
 42 83  1  0  0  0  0
 42 84  1  0  0  0  0
 42 85  1  0  0  0  0
M  CHG  1  31   1
M  END
>  <s_m_source_file>
BACE_135.smi

>  <i_m_source_file_index>
1

>  <i_lp_mmshare_version>
42013

>  <i_f3d_flags>
0

>  <s_epik_input>
W0NIM11DKD1PKVtDSDJdT2MoW2NIXWMxMilbY0hdYyhbY0hdMSlDKD1PKVtOSF1bQ0BASF0oW0NIMl1jM1tjSF1jKFtjSF1bY0hdW2NIXTMpW0NIMl1bQ0gyXVtDSDJdW0NIMl1PMilbQ0BIXShbT0hdKVtDSDJdW05IXVtDSDJdYzRbY0hdYyhbY0hdW2NIXW40KUMoW0NIM10pKFtDSDNdKVtDSDNd

>  <s_epik_cmdline>
J2VwaWtfcHl0aG9uJywgJy1waCcsICc3LjAnLCAnLXRuJywgJzgnLCAnLW1hJywgJzIwMCcsICctaW1hZScsICc8aW5maWxlLm1hZT4nLCAnLW9tYWUnLCAnPG91dGZpbGUubWFlPic=

>  <r_lp_tautomer_probability>
1

>  <r_epik_Ionization_Penalty>
0.0381

>  <r_epik_Ionization_Penalty_Charging>
0.0379

>  <r_epik_Ionization_Penalty_Neutral>
0.0002

>  <r_epik_State_Penalty>
0.0317

>  <r_epik_Charging_Adjusted_Penalty>
0.0696342

>  <i_epik_Tot_Q>
1

>  <i_epik_Tot_abs_Q>
1

>  <s_lp_Force_Field>
OPLS_2005

>  <r_lp_Energy>
34.9043

>  <b_lp_Chiralities_Consistent>
1

>  <s_lp_Variant>
BACE_135.smi:1-1

>  <chiral flag>
1

>  <version>
0

>  <s_i_glide_gridfile>
second_dock_grid_2

>  <i_i_glide_lignum>
277

>  <i_i_glide_rotatable_bonds>
10

>  <r_i_docking_score>
-5.90849

>  <r_i_glide_ligand_efficiency>
-0.140678

>  <r_i_glide_ligand_efficiency_sa>
-0.489001

>  <r_i_glide_ligand_efficiency_ln>
-1.24713

>  <r_glide_XP_GScore>
-5.94019

>  <r_i_glide_gscore>
-5.94019

>  <r_i_glide_evdw>
-46.384

>  <r_i_glide_ecoul>
-14.1473

>  <r_i_glide_energy>
-60.5313

>  <r_i_glide_einternal>
13.053

>  <r_i_glide_emodel>
-77.1189

>  <r_glide_XP_HBond>
-1.51384

>  <i_i_glide_confnum>
1

>  <i_i_glide_posenum>
2

>  <r_i_glide_eff_state_penalty>
0.0317

>  <i_glide_XP_PoseRank>
1

$$$$
