BACE_80.smi:1
 OpenBabel09291822493D
Structure written by MMmdl.
 85 88  0  0  1  0  0  0  0  0999 V2000
   30.5103   45.6731  -10.1056 C   0  0  0  0  0  0  0  0  0  0  0  0
   30.2256   44.4156   -9.2713 C   0  0  0  0  0  0  0  0  0  0  0  0
   31.5139   43.7369   -8.7843 C   0  0  0  0  0  0  0  0  0  0  0  0
   29.3055   43.4607  -10.0217 C   0  0  0  0  0  0  0  0  0  0  0  0
   27.9302   43.4504   -9.7082 C   0  0  0  0  0  0  0  0  0  0  0  0
   27.0386   42.6094  -10.4053 C   0  0  0  0  0  0  0  0  0  0  0  0
   25.5614   42.6445  -10.0481 C   0  0  0  0  0  0  0  0  0  0  0  0
   24.6969   42.8245  -11.2145 N   0  0  0  0  0  0  0  0  0  0  0  0
   23.4865   43.6236  -10.9794 C   0  0  0  0  0  0  0  0  0  0  0  0
   22.6082   43.1477   -9.7935 C   0  0  1  0  0  0  0  0  0  0  0  0
   21.6719   44.1705   -9.5262 O   0  0  0  0  0  0  0  0  0  0  0  0
   21.8339   41.7943   -9.9272 C   0  0  2  0  0  0  0  0  0  0  0  0
   22.5054   40.7133   -9.0344 C   0  0  0  0  0  0  0  0  0  0  0  0
   21.7041   39.4332   -8.6988 C   0  0  2  0  0  0  0  0  0  0  0  0
   21.5242   38.4950   -9.8999 C   0  0  0  0  0  0  0  0  0  0  0  0
   20.3758   39.7191   -7.9712 C   0  0  0  0  0  0  0  0  0  0  0  0
   19.7408   38.4573   -7.3559 C   0  0  0  0  0  0  0  0  0  0  0  0
   18.4996   38.7412   -6.4973 C   0  0  0  0  0  0  0  0  0  0  0  0
   17.1497   38.6009   -7.2218 C   0  0  0  0  0  0  0  0  0  0  0  0
   16.8797   39.6561   -8.3046 C   0  0  0  0  0  0  0  0  0  0  0  0
   15.4697   39.5253   -8.9033 C   0  0  0  0  0  0  0  0  0  0  0  0
   15.1071   40.6418   -9.8947 C   0  0  0  0  0  0  0  0  0  0  0  0
   15.9367   40.5654  -11.0532 O   0  0  0  0  0  0  0  0  0  0  0  0
   16.9938   41.4422  -11.1423 C   0  0  0  0  0  0  0  0  0  0  0  0
   18.2391   40.9367  -11.5618 C   0  0  0  0  0  0  0  0  0  0  0  0
   19.3626   41.7814  -11.6820 C   0  0  0  0  0  0  0  0  0  0  0  0
   19.2116   43.1644  -11.4485 C   0  0  0  0  0  0  0  0  0  0  0  0
   17.9686   43.6914  -11.0351 C   0  0  0  0  0  0  0  0  0  0  0  0
   16.8655   42.8261  -10.8797 C   0  0  0  0  0  0  0  0  0  0  0  0
   17.8324   45.1224  -10.7749 C   0  0  0  0  0  0  0  0  0  0  0  0
   18.7179   46.0918  -10.9974 N   0  0  0  0  0  0  0  0  0  0  0  0
   18.0982   47.2588  -10.5758 C   0  0  0  0  0  0  0  0  0  0  0  0
   16.8524   46.9322  -10.1120 C   0  0  0  0  0  0  0  0  0  0  0  0
   16.6658   45.5827  -10.2372 O   0  0  0  0  0  0  0  0  0  0  0  0
   20.6764   41.2111  -12.1236 C   0  0  0  0  0  0  0  0  0  0  0  0
   20.7480   40.6313  -13.2049 O   0  0  0  0  0  0  0  0  0  0  0  0
   21.7539   41.3329  -11.3213 N   0  0  0  0  0  0  0  0  0  0  0  0
   27.5297   41.7514  -11.4099 C   0  0  0  0  0  0  0  0  0  0  0  0
   28.9039   41.7572  -11.7309 C   0  0  0  0  0  0  0  0  0  0  0  0
   29.7883   42.6118  -11.0428 C   0  0  0  0  0  0  0  0  0  0  0  0
   23.2236   43.1333   -8.8928 H   0  0  0  0  0  0  0  0  0  0  0  0
   20.8306   41.9346   -9.5232 H   0  0  0  0  0  0  0  0  0  0  0  0
   22.3372   38.8926   -7.9928 H   0  0  0  0  0  0  0  0  0  0  0  0
   29.5826   46.1872  -10.3614 H   0  0  0  0  0  0  0  0  0  0  0  0
   31.0230   45.4314  -11.0370 H   0  0  0  0  0  0  0  0  0  0  0  0
   31.1323   46.3781   -9.5538 H   0  0  0  0  0  0  0  0  0  0  0  0
   29.6947   44.7408   -8.3755 H   0  0  0  0  0  0  0  0  0  0  0  0
   31.2835   42.8640   -8.1709 H   0  0  0  0  0  0  0  0  0  0  0  0
   32.1078   44.4191   -8.1739 H   0  0  0  0  0  0  0  0  0  0  0  0
   32.1339   43.4139   -9.6191 H   0  0  0  0  0  0  0  0  0  0  0  0
   27.5545   44.1023   -8.9354 H   0  0  0  0  0  0  0  0  0  0  0  0
   25.3043   41.7309   -9.5138 H   0  0  0  0  0  0  0  0  0  0  0  0
   25.4170   43.4649   -9.3473 H   0  0  0  0  0  0  0  0  0  0  0  0
   24.4277   41.9109  -11.5687 H   0  0  0  0  0  0  0  0  0  0  0  0
   23.7901   44.6530  -10.7798 H   0  0  0  0  0  0  0  0  0  0  0  0
   22.8899   43.6649  -11.8920 H   0  0  0  0  0  0  0  0  0  0  0  0
   21.1275   44.2940  -10.2901 H   0  0  0  0  0  0  0  0  0  0  0  0
   23.4617   40.4247   -9.4726 H   0  0  0  0  0  0  0  0  0  0  0  0
   22.7533   41.1649   -8.0723 H   0  0  0  0  0  0  0  0  0  0  0  0
   20.7743   38.8593  -10.6000 H   0  0  0  0  0  0  0  0  0  0  0  0
   21.2082   37.5037   -9.5773 H   0  0  0  0  0  0  0  0  0  0  0  0
   22.4588   38.3640  -10.4388 H   0  0  0  0  0  0  0  0  0  0  0  0
   20.5586   40.4419   -7.1754 H   0  0  0  0  0  0  0  0  0  0  0  0
   19.6758   40.1925   -8.6567 H   0  0  0  0  0  0  0  0  0  0  0  0
   19.4891   37.7322   -8.1294 H   0  0  0  0  0  0  0  0  0  0  0  0
   20.4881   37.9767   -6.7232 H   0  0  0  0  0  0  0  0  0  0  0  0
   18.4819   38.0324   -5.6693 H   0  0  0  0  0  0  0  0  0  0  0  0
   18.5922   39.7231   -6.0410 H   0  0  0  0  0  0  0  0  0  0  0  0
   17.0671   37.6009   -7.6492 H   0  0  0  0  0  0  0  0  0  0  0  0
   16.3599   38.6636   -6.4703 H   0  0  0  0  0  0  0  0  0  0  0  0
   17.0145   40.6526   -7.8821 H   0  0  0  0  0  0  0  0  0  0  0  0
   17.6113   39.5444   -9.1027 H   0  0  0  0  0  0  0  0  0  0  0  0
   15.3723   38.5557   -9.3926 H   0  0  0  0  0  0  0  0  0  0  0  0
   14.7378   39.5316   -8.0938 H   0  0  0  0  0  0  0  0  0  0  0  0
   14.0764   40.5011  -10.2199 H   0  0  0  0  0  0  0  0  0  0  0  0
   15.1312   41.6035   -9.3839 H   0  0  0  0  0  0  0  0  0  0  0  0
   18.3374   39.8802  -11.7720 H   0  0  0  0  0  0  0  0  0  0  0  0
   20.0521   43.8237  -11.6023 H   0  0  0  0  0  0  0  0  0  0  0  0
   15.9105   43.2333  -10.5857 H   0  0  0  0  0  0  0  0  0  0  0  0
   18.5872   48.2194  -10.6380 H   0  0  0  0  0  0  0  0  0  0  0  0
   16.0369   47.5014   -9.6927 H   0  0  0  0  0  0  0  0  0  0  0  0
   22.6021   40.9411  -11.7071 H   0  0  0  0  0  0  0  0  0  0  0  0
   26.8592   41.0936  -11.9434 H   0  0  0  0  0  0  0  0  0  0  0  0
   29.2765   41.1072  -12.5114 H   0  0  0  0  0  0  0  0  0  0  0  0
   30.8334   42.6190  -11.3141 H   0  0  0  0  0  0  0  0  0  0  0  0
  1  2  1  0  0  0  0
  1 44  1  0  0  0  0
  1 45  1  0  0  0  0
  1 46  1  0  0  0  0
  2  3  1  0  0  0  0
  2  4  1  0  0  0  0
  2 47  1  0  0  0  0
  3 48  1  0  0  0  0
  3 49  1  0  0  0  0
  3 50  1  0  0  0  0
  4 40  1  0  0  0  0
  4  5  2  0  0  0  0
  5  6  1  0  0  0  0
  5 51  1  0  0  0  0
  6  7  1  0  0  0  0
  6 38  2  0  0  0  0
  7  8  1  0  0  0  0
  7 52  1  0  0  0  0
  7 53  1  0  0  0  0
  8  9  1  0  0  0  0
  8 54  1  0  0  0  0
  9 10  1  0  0  0  0
  9 55  1  0  0  0  0
  9 56  1  0  0  0  0
 10 41  1  1  0  0  0
 10 11  1  0  0  0  0
 10 12  1  0  0  0  0
 11 57  1  0  0  0  0
 12 42  1  1  0  0  0
 12 37  1  0  0  0  0
 12 13  1  0  0  0  0
 13 14  1  0  0  0  0
 13 58  1  0  0  0  0
 13 59  1  0  0  0  0
 14 43  1  1  0  0  0
 14 15  1  0  0  0  0
 14 16  1  0  0  0  0
 15 60  1  0  0  0  0
 15 61  1  0  0  0  0
 15 62  1  0  0  0  0
 16 17  1  0  0  0  0
 16 63  1  0  0  0  0
 16 64  1  0  0  0  0
 17 18  1  0  0  0  0
 17 65  1  0  0  0  0
 17 66  1  0  0  0  0
 18 19  1  0  0  0  0
 18 67  1  0  0  0  0
 18 68  1  0  0  0  0
 19 20  1  0  0  0  0
 19 69  1  0  0  0  0
 19 70  1  0  0  0  0
 20 21  1  0  0  0  0
 20 71  1  0  0  0  0
 20 72  1  0  0  0  0
 21 22  1  0  0  0  0
 21 73  1  0  0  0  0
 21 74  1  0  0  0  0
 22 23  1  0  0  0  0
 22 75  1  0  0  0  0
 22 76  1  0  0  0  0
 23 24  1  0  0  0  0
 24 29  1  0  0  0  0
 24 25  2  0  0  0  0
 25 26  1  0  0  0  0
 25 77  1  0  0  0  0
 26 27  2  0  0  0  0
 26 35  1  0  0  0  0
 27 28  1  0  0  0  0
 27 78  1  0  0  0  0
 28 29  2  0  0  0  0
 28 30  1  0  0  0  0
 29 79  1  0  0  0  0
 30 34  1  0  0  0  0
 30 31  2  0  0  0  0
 31 32  1  0  0  0  0
 32 33  2  0  0  0  0
 32 80  1  0  0  0  0
 33 34  1  0  0  0  0
 33 81  1  0  0  0  0
 35 36  2  0  0  0  0
 35 37  1  0  0  0  0
 37 82  1  0  0  0  0
 38 39  1  0  0  0  0
 38 83  1  0  0  0  0
 39 40  2  0  0  0  0
 39 84  1  0  0  0  0
 40 85  1  0  0  0  0
M  END
>  <s_m_source_file>
BACE_80.smi

>  <i_m_source_file_index>
1

>  <i_lp_mmshare_version>
42013

>  <i_f3d_flags>
0

>  <s_epik_input>
bzFbY0hdW2NIXW5jMS1jKFtjSF0yKVtjSF1jKFtjSF1jMjMpQyg9TylbTkhdW0NASF0oW0NASF0oW09IXSlbQ0gyXVtOSF1bQ0gyXWMoW2NIXVtjSF1bY0hdNClbY0hdYzRbQ0hdKFtDSDNdKVtDSDNdKVtDSDJdW0NASF0oW0NIM10pW0NIMl1bQ0gyXVtDSDJdW0NIMl1bQ0gyXVtDSDJdW0NIMl1PMw==

>  <s_epik_cmdline>
J2VwaWtfcHl0aG9uJywgJy1waCcsICc3LjAnLCAnLXRuJywgJzgnLCAnLW1hJywgJzIwMCcsICctaW1hZScsICc8aW5maWxlLm1hZT4nLCAnLW9tYWUnLCAnPG91dGZpbGUubWFlPic=

>  <r_lp_tautomer_probability>
1

>  <r_epik_Ionization_Penalty>
2.1294

>  <r_epik_Ionization_Penalty_Charging>
0.0000

>  <r_epik_Ionization_Penalty_Neutral>
2.1294

>  <r_epik_State_Penalty>
2.2676

>  <r_epik_Charging_Adjusted_Penalty>
2.26762

>  <i_epik_Tot_Q>
0

>  <i_epik_Tot_abs_Q>
0

>  <s_lp_Force_Field>
OPLS_2005

>  <r_lp_Energy>
50.2258

>  <b_lp_Chiralities_Consistent>
1

>  <s_lp_Variant>
BACE_80.smi:1-2

>  <chiral flag>
1

>  <version>
0

>  <s_i_glide_gridfile>
second_dock_grid_2

>  <i_i_glide_lignum>
161

>  <i_i_glide_rotatable_bonds>
8

>  <r_i_docking_score>
-2.07432

>  <r_i_glide_ligand_efficiency>
-0.0518581

>  <r_i_glide_ligand_efficiency_sa>
-0.177352

>  <r_i_glide_ligand_efficiency_ln>
-0.442392

>  <r_glide_XP_GScore>
-4.34192

>  <r_i_glide_gscore>
-4.34192

>  <r_i_glide_evdw>
-42.1479

>  <r_i_glide_ecoul>
-8.68897

>  <r_i_glide_energy>
-50.8368

>  <r_i_glide_einternal>
5.92107

>  <r_i_glide_emodel>
-72.4668

>  <r_glide_XP_HBond>
-0.94233

>  <i_i_glide_confnum>
1

>  <i_i_glide_posenum>
1

>  <r_i_glide_eff_state_penalty>
2.2676

>  <i_glide_XP_PoseRank>
1

$$$$
