BACE_143.smi:1
 OpenBabel09291822493D
Structure written by MMmdl.
 61 61  0  0  1  0  0  0  0  0999 V2000
   15.3232   38.3241   -9.2287 C   0  0  0  0  0  0  0  0  0  0  0  0
   16.1004   39.5585   -8.7803 C   0  0  2  0  0  0  0  0  0  0  0  0
   16.9624   39.1624   -7.5641 C   0  0  0  0  0  0  0  0  0  0  0  0
   18.1000   38.1740   -7.8915 C   0  0  0  0  0  0  0  0  0  0  0  0
   19.2190   38.8062   -8.7403 C   0  0  0  0  0  0  0  0  0  0  0  0
   20.4961   37.9479   -8.8275 C   0  0  0  0  0  0  0  0  0  0  0  0
   21.6205   38.5727   -9.6882 C   0  0  0  0  0  0  0  0  0  0  0  0
   22.0108   40.0235   -9.3260 C   0  0  0  0  0  0  0  0  0  0  0  0
   22.6000   40.1985   -7.9070 C   0  0  0  0  0  0  0  0  0  0  0  0
   22.4392   41.6303   -7.3386 C   0  0  0  0  0  0  0  0  0  0  0  0
   21.0097   41.9508   -6.8825 C   0  0  0  0  0  0  0  0  0  0  0  0
   20.5222   41.3237   -5.9565 O   0  0  0  0  0  0  0  0  0  0  0  0
   20.3685   42.9241   -7.5451 N   0  0  0  0  0  0  0  0  0  0  0  0
   21.0685   43.5636   -8.6409 C   0  0  0  0  0  0  0  0  0  0  0  0
   18.9520   43.2678   -7.2860 C   0  0  1  0  0  0  0  0  0  0  0  0
   18.8133   44.7874   -7.3022 C   0  0  0  0  0  0  0  0  0  0  0  0
   18.0041   42.7078   -8.3724 C   0  0  0  0  0  0  0  0  0  0  0  0
   18.3896   42.4714   -9.5055 O   0  0  0  0  0  0  0  0  0  0  0  0
   16.7250   42.5570   -7.9993 N   0  0  0  0  0  0  0  0  0  0  0  0
   15.6111   42.1246   -8.8483 C   0  0  1  0  0  0  0  0  0  0  0  0
   15.1069   40.7081   -8.4943 C   0  0  0  0  0  0  0  0  0  0  0  0
   14.4643   43.1116   -8.6499 C   0  0  2  0  0  0  0  0  0  0  0  0
   13.4207   42.8420   -9.5688 O   0  0  0  0  0  0  0  0  0  0  0  0
   14.8897   44.5842   -8.8341 C   0  0  0  0  0  0  0  0  0  0  0  0
   14.5232   45.3495   -7.7045 O   0  0  0  0  0  0  0  0  0  0  0  0
   16.7258   39.8297   -9.6309 H   0  0  0  0  0  0  0  0  0  0  0  0
   18.6154   42.9501   -6.2992 H   0  0  0  0  0  0  0  0  0  0  0  0
   15.8547   42.1760   -9.9095 H   0  0  0  0  0  0  0  0  0  0  0  0
   14.0661   42.9967   -7.6407 H   0  0  0  0  0  0  0  0  0  0  0  0
   15.9852   37.4831   -9.4334 H   0  0  0  0  0  0  0  0  0  0  0  0
   14.7646   38.5065  -10.1460 H   0  0  0  0  0  0  0  0  0  0  0  0
   14.6114   38.0009   -8.4682 H   0  0  0  0  0  0  0  0  0  0  0  0
   17.3896   40.0494   -7.0964 H   0  0  0  0  0  0  0  0  0  0  0  0
   16.3154   38.7210   -6.8060 H   0  0  0  0  0  0  0  0  0  0  0  0
   17.7040   37.2874   -8.3867 H   0  0  0  0  0  0  0  0  0  0  0  0
   18.5258   37.8256   -6.9506 H   0  0  0  0  0  0  0  0  0  0  0  0
   18.8270   38.9660   -9.7447 H   0  0  0  0  0  0  0  0  0  0  0  0
   19.4716   39.7933   -8.3533 H   0  0  0  0  0  0  0  0  0  0  0  0
   20.2442   36.9699   -9.2375 H   0  0  0  0  0  0  0  0  0  0  0  0
   20.8684   37.7500   -7.8223 H   0  0  0  0  0  0  0  0  0  0  0  0
   22.5044   37.9368   -9.6400 H   0  0  0  0  0  0  0  0  0  0  0  0
   21.3071   38.5537  -10.7320 H   0  0  0  0  0  0  0  0  0  0  0  0
   21.1341   40.6642   -9.4205 H   0  0  0  0  0  0  0  0  0  0  0  0
   22.7024   40.4002  -10.0795 H   0  0  0  0  0  0  0  0  0  0  0  0
   22.1592   39.4889   -7.2069 H   0  0  0  0  0  0  0  0  0  0  0  0
   23.6576   39.9367   -7.9377 H   0  0  0  0  0  0  0  0  0  0  0  0
   22.7938   42.3665   -8.0601 H   0  0  0  0  0  0  0  0  0  0  0  0
   23.0796   41.7527   -6.4651 H   0  0  0  0  0  0  0  0  0  0  0  0
   20.5461   44.4283   -9.0456 H   0  0  0  0  0  0  0  0  0  0  0  0
   21.2270   42.8686   -9.4663 H   0  0  0  0  0  0  0  0  0  0  0  0
   22.0353   43.9504   -8.3159 H   0  0  0  0  0  0  0  0  0  0  0  0
   17.7654   45.0901   -7.2836 H   0  0  0  0  0  0  0  0  0  0  0  0
   19.2678   45.2301   -8.1892 H   0  0  0  0  0  0  0  0  0  0  0  0
   19.2909   45.2369   -6.4309 H   0  0  0  0  0  0  0  0  0  0  0  0
   16.4984   42.7967   -7.0447 H   0  0  0  0  0  0  0  0  0  0  0  0
   14.7569   40.6733   -7.4627 H   0  0  0  0  0  0  0  0  0  0  0  0
   14.2143   40.5337   -9.0952 H   0  0  0  0  0  0  0  0  0  0  0  0
   12.9743   42.0560   -9.2933 H   0  0  0  0  0  0  0  0  0  0  0  0
   15.9730   44.6612   -8.9304 H   0  0  0  0  0  0  0  0  0  0  0  0
   14.4557   45.0257   -9.7319 H   0  0  0  0  0  0  0  0  0  0  0  0
   14.9629   44.9951   -6.9468 H   0  0  0  0  0  0  0  0  0  0  0  0
  1  2  1  0  0  0  0
  1 30  1  0  0  0  0
  1 31  1  0  0  0  0
  1 32  1  0  0  0  0
  2 26  1  6  0  0  0
  2 21  1  0  0  0  0
  2  3  1  0  0  0  0
  3  4  1  0  0  0  0
  3 33  1  0  0  0  0
  3 34  1  0  0  0  0
  4  5  1  0  0  0  0
  4 35  1  0  0  0  0
  4 36  1  0  0  0  0
  5  6  1  0  0  0  0
  5 37  1  0  0  0  0
  5 38  1  0  0  0  0
  6  7  1  0  0  0  0
  6 39  1  0  0  0  0
  6 40  1  0  0  0  0
  7  8  1  0  0  0  0
  7 41  1  0  0  0  0
  7 42  1  0  0  0  0
  8  9  1  0  0  0  0
  8 43  1  0  0  0  0
  8 44  1  0  0  0  0
  9 10  1  0  0  0  0
  9 45  1  0  0  0  0
  9 46  1  0  0  0  0
 10 11  1  0  0  0  0
 10 47  1  0  0  0  0
 10 48  1  0  0  0  0
 11 12  2  0  0  0  0
 11 13  1  0  0  0  0
 13 14  1  0  0  0  0
 13 15  1  0  0  0  0
 14 49  1  0  0  0  0
 14 50  1  0  0  0  0
 14 51  1  0  0  0  0
 15 27  1  1  0  0  0
 15 16  1  0  0  0  0
 15 17  1  0  0  0  0
 16 52  1  0  0  0  0
 16 53  1  0  0  0  0
 16 54  1  0  0  0  0
 17 18  2  0  0  0  0
 17 19  1  0  0  0  0
 19 20  1  0  0  0  0
 19 55  1  0  0  0  0
 20 28  1  6  0  0  0
 20 21  1  0  0  0  0
 20 22  1  0  0  0  0
 21 56  1  0  0  0  0
 21 57  1  0  0  0  0
 22 29  1  1  0  0  0
 22 23  1  0  0  0  0
 22 24  1  0  0  0  0
 23 58  1  0  0  0  0
 24 25  1  0  0  0  0
 24 59  1  0  0  0  0
 24 60  1  0  0  0  0
 25 61  1  0  0  0  0
M  END
>  <s_m_source_file>
BACE_143.smi

>  <i_m_source_file_index>
1

>  <i_lp_mmshare_version>
42013

>  <i_f3d_flags>
0

>  <s_epik_input>
W0NIM11bQ0BASF0xW0NIMl1bQ0gyXVtDSDJdW0NIMl1bQ0gyXVtDSDJdW0NIMl1bQ0gyXUMoPU8pTihbQ0gzXSlbQ0BASF0oW0NIM10pQyg9TylbTkhdW0NAQEhdKFtDSDJdMSlbQ0BIXShbT0hdKVtDSDJdW09IXQ==

>  <s_epik_cmdline>
J2VwaWtfcHl0aG9uJywgJy1waCcsICc3LjAnLCAnLXRuJywgJzgnLCAnLW1hJywgJzIwMCcsICctaW1hZScsICc8aW5maWxlLm1hZT4nLCAnLW9tYWUnLCAnPG91dGZpbGUubWFlPic=

>  <r_lp_tautomer_probability>
1

>  <r_epik_Ionization_Penalty>
0.0000

>  <r_epik_Ionization_Penalty_Charging>
0.0000

>  <r_epik_Ionization_Penalty_Neutral>
0.0000

>  <r_epik_State_Penalty>
-0.0000

>  <r_epik_Charging_Adjusted_Penalty>
0

>  <i_epik_Tot_Q>
0

>  <i_epik_Tot_abs_Q>
0

>  <s_lp_Force_Field>
OPLS_2005

>  <r_lp_Energy>
36.4339

>  <b_lp_Chiralities_Consistent>
1

>  <s_lp_Variant>
BACE_143.smi:1-1

>  <chiral flag>
1

>  <version>
0

>  <s_i_glide_gridfile>
second_dock_grid_2

>  <i_i_glide_lignum>
292

>  <i_i_glide_rotatable_bonds>
4

>  <r_i_docking_score>
-4.34653

>  <r_i_glide_ligand_efficiency>
-0.173861

>  <r_i_glide_ligand_efficiency_sa>
-0.508373

>  <r_i_glide_ligand_efficiency_ln>
-1.03026

>  <r_glide_XP_GScore>
-4.34653

>  <r_i_glide_gscore>
-4.34653

>  <r_i_glide_evdw>
-23.4155

>  <r_i_glide_ecoul>
-9.07635

>  <r_i_glide_energy>
-32.4919

>  <r_i_glide_einternal>
5.53978

>  <r_i_glide_emodel>
-42.0726

>  <r_glide_XP_HBond>
-1.23859

>  <i_i_glide_confnum>
1

>  <i_i_glide_posenum>
9

>  <r_i_glide_eff_state_penalty>
-0

>  <i_glide_XP_PoseRank>
1

$$$$
