BACE_29.smi:1
 OpenBabel09291822493D
Structure written by MMmdl.
 87 88  0  0  1  0  0  0  0  0999 V2000
   16.3987   46.6013   -9.0866 C   0  0  0  0  0  0  0  0  0  0  0  0
   17.1175   45.6406  -10.0560 C   0  0  2  0  0  0  0  0  0  0  0  0
   17.0506   46.1604  -11.5105 C   0  0  0  0  0  0  0  0  0  0  0  0
   17.9831   47.3496  -11.8105 C   0  0  0  0  0  0  0  0  0  0  0  0
   19.4581   46.9353  -11.9576 C   0  0  0  0  0  0  0  0  0  0  0  0
   20.4433   48.1115  -12.0787 C   0  0  0  0  0  0  0  0  0  0  0  0
   20.5311   49.0334  -10.8442 C   0  0  0  0  0  0  0  0  0  0  0  0
   20.7741   48.3227   -9.5000 C   0  0  0  0  0  0  0  0  0  0  0  0
   22.1512   47.6432   -9.3882 C   0  0  0  0  0  0  0  0  0  0  0  0
   22.2935   46.7564   -8.1326 C   0  0  0  0  0  0  0  0  0  0  0  0
   21.4785   45.4468   -8.2016 C   0  0  0  0  0  0  0  0  0  0  0  0
   21.1905   44.9964   -9.3132 O   0  0  0  0  0  0  0  0  0  0  0  0
   21.0983   44.8192   -7.0557 N   0  0  0  0  0  0  0  0  0  0  0  0
   21.4209   45.3874   -5.7346 C   0  0  0  0  0  0  0  0  0  0  0  0
   20.2437   43.6053   -7.1584 C   0  0  1  0  0  0  0  0  0  0  0  0
   20.3280   42.6727   -5.9307 C   0  0  0  0  0  0  0  0  0  0  0  0
   18.7720   44.0142   -7.3529 C   0  0  0  0  0  0  0  0  0  0  0  0
   18.3049   44.9587   -6.7132 O   0  0  0  0  0  0  0  0  0  0  0  0
   18.0614   43.3042   -8.2466 N   0  0  0  0  0  0  0  0  0  0  0  0
   16.6502   43.5150   -8.5901 C   0  0  1  0  0  0  0  0  0  0  0  0
   16.5312   44.2105   -9.9686 C   0  0  0  0  0  0  0  0  0  0  0  0
   15.8336   42.1924   -8.5305 C   0  0  2  0  0  0  0  0  0  0  0  0
   14.4596   42.5525   -8.5642 O   0  0  0  0  0  0  0  0  0  0  0  0
   16.1216   41.3992   -7.2397 C   0  0  0  0  0  0  0  0  0  0  0  0
   15.1897   40.2663   -7.0197 N   0  3  0  0  0  0  0  0  0  0  0  0
   15.8110   38.9370   -6.8614 C   0  0  0  0  0  0  0  0  0  0  0  0
   16.7255   38.6143   -8.0086 C   0  0  0  0  0  0  0  0  0  0  0  0
   18.1437   38.7251   -8.0629 C   0  0  0  0  0  0  0  0  0  0  0  0
   18.4346   38.4652   -9.3714 C   0  0  0  0  0  0  0  0  0  0  0  0
   19.6914   38.5476  -10.1801 C   0  0  0  0  0  0  0  0  0  0  0  0
   19.9720   39.9439  -10.8112 C   0  0  0  0  0  0  0  0  0  0  0  0
   18.6881   40.6454  -11.3098 C   0  0  0  0  0  0  0  0  0  0  0  0
   20.6481   40.8406   -9.7582 C   0  0  0  0  0  0  0  0  0  0  0  0
   20.9212   39.7901  -12.0108 C   0  0  0  0  0  0  0  0  0  0  0  0
   17.2961   38.1569  -10.0398 O   0  0  0  0  0  0  0  0  0  0  0  0
   16.2079   38.2620   -9.1711 N   0  0  0  0  0  0  0  0  0  0  0  0
   18.1649   45.5899   -9.7643 H   0  0  0  0  0  0  0  0  0  0  0  0
   20.5706   43.0148   -8.0128 H   0  0  0  0  0  0  0  0  0  0  0  0
   16.2061   44.1607   -7.8317 H   0  0  0  0  0  0  0  0  0  0  0  0
   16.0514   41.5717   -9.4002 H   0  0  0  0  0  0  0  0  0  0  0  0
   16.7104   47.6371   -9.2184 H   0  0  0  0  0  0  0  0  0  0  0  0
   16.6015   46.3533   -8.0453 H   0  0  0  0  0  0  0  0  0  0  0  0
   15.3198   46.5554   -9.2248 H   0  0  0  0  0  0  0  0  0  0  0  0
   17.2903   45.3553  -12.2072 H   0  0  0  0  0  0  0  0  0  0  0  0
   16.0219   46.4412  -11.7381 H   0  0  0  0  0  0  0  0  0  0  0  0
   17.8757   48.1122  -11.0416 H   0  0  0  0  0  0  0  0  0  0  0  0
   17.6663   47.8227  -12.7395 H   0  0  0  0  0  0  0  0  0  0  0  0
   19.7612   46.2990  -11.1326 H   0  0  0  0  0  0  0  0  0  0  0  0
   19.5519   46.3077  -12.8395 H   0  0  0  0  0  0  0  0  0  0  0  0
   20.1798   48.7099  -12.9507 H   0  0  0  0  0  0  0  0  0  0  0  0
   21.4321   47.7137  -12.2969 H   0  0  0  0  0  0  0  0  0  0  0  0
   21.3170   49.7693  -11.0055 H   0  0  0  0  0  0  0  0  0  0  0  0
   19.6107   49.6110  -10.7665 H   0  0  0  0  0  0  0  0  0  0  0  0
   19.9766   47.6064   -9.3131 H   0  0  0  0  0  0  0  0  0  0  0  0
   20.6864   49.0536   -8.6977 H   0  0  0  0  0  0  0  0  0  0  0  0
   22.3549   47.0452  -10.2760 H   0  0  0  0  0  0  0  0  0  0  0  0
   22.9253   48.4111   -9.3738 H   0  0  0  0  0  0  0  0  0  0  0  0
   22.0171   47.3559   -7.2655 H   0  0  0  0  0  0  0  0  0  0  0  0
   23.3407   46.4820   -8.0016 H   0  0  0  0  0  0  0  0  0  0  0  0
   21.2020   44.7464   -4.8833 H   0  0  0  0  0  0  0  0  0  0  0  0
   20.8523   46.3043   -5.5779 H   0  0  0  0  0  0  0  0  0  0  0  0
   22.4832   45.6252   -5.6627 H   0  0  0  0  0  0  0  0  0  0  0  0
   19.8663   41.7109   -6.1555 H   0  0  0  0  0  0  0  0  0  0  0  0
   19.8099   43.0708   -5.0565 H   0  0  0  0  0  0  0  0  0  0  0  0
   21.3637   42.4706   -5.6583 H   0  0  0  0  0  0  0  0  0  0  0  0
   18.5478   42.5719   -8.7400 H   0  0  0  0  0  0  0  0  0  0  0  0
   17.0154   43.5768  -10.7117 H   0  0  0  0  0  0  0  0  0  0  0  0
   15.4822   44.2553  -10.2623 H   0  0  0  0  0  0  0  0  0  0  0  0
   13.9249   41.8198   -8.8399 H   0  0  0  0  0  0  0  0  0  0  0  0
   17.1566   41.0622   -7.2407 H   0  0  0  0  0  0  0  0  0  0  0  0
   16.0594   42.0681   -6.3965 H   0  0  0  0  0  0  0  0  0  0  0  0
   14.6397   40.4703   -6.1875 H   0  0  0  0  0  0  0  0  0  0  0  0
   16.3580   38.9265   -5.9207 H   0  0  0  0  0  0  0  0  0  0  0  0
   15.0146   38.1925   -6.8233 H   0  0  0  0  0  0  0  0  0  0  0  0
   18.8221   39.0285   -7.2787 H   0  0  0  0  0  0  0  0  0  0  0  0
   20.5371   38.2241   -9.5754 H   0  0  0  0  0  0  0  0  0  0  0  0
   19.6181   37.8071  -10.9761 H   0  0  0  0  0  0  0  0  0  0  0  0
   18.1555   40.0307  -12.0344 H   0  0  0  0  0  0  0  0  0  0  0  0
   18.9237   41.5922  -11.7983 H   0  0  0  0  0  0  0  0  0  0  0  0
   18.0008   40.8722  -10.4957 H   0  0  0  0  0  0  0  0  0  0  0  0
   21.6062   40.4305   -9.4395 H   0  0  0  0  0  0  0  0  0  0  0  0
   20.0240   40.9399   -8.8716 H   0  0  0  0  0  0  0  0  0  0  0  0
   20.8344   41.8410  -10.1472 H   0  0  0  0  0  0  0  0  0  0  0  0
   21.8668   39.3500  -11.7028 H   0  0  0  0  0  0  0  0  0  0  0  0
   21.1539   40.7540  -12.4636 H   0  0  0  0  0  0  0  0  0  0  0  0
   20.4855   39.1613  -12.7872 H   0  0  0  0  0  0  0  0  0  0  0  0
   14.5544   40.2046   -7.7991 H   0  0  0  0  0  0  0  0  0  0  0  0
  1  2  1  0  0  0  0
  1 41  1  0  0  0  0
  1 42  1  0  0  0  0
  1 43  1  0  0  0  0
  2 37  1  1  0  0  0
  2 21  1  0  0  0  0
  2  3  1  0  0  0  0
  3  4  1  0  0  0  0
  3 44  1  0  0  0  0
  3 45  1  0  0  0  0
  4  5  1  0  0  0  0
  4 46  1  0  0  0  0
  4 47  1  0  0  0  0
  5  6  1  0  0  0  0
  5 48  1  0  0  0  0
  5 49  1  0  0  0  0
  6  7  1  0  0  0  0
  6 50  1  0  0  0  0
  6 51  1  0  0  0  0
  7  8  1  0  0  0  0
  7 52  1  0  0  0  0
  7 53  1  0  0  0  0
  8  9  1  0  0  0  0
  8 54  1  0  0  0  0
  8 55  1  0  0  0  0
  9 10  1  0  0  0  0
  9 56  1  0  0  0  0
  9 57  1  0  0  0  0
 10 11  1  0  0  0  0
 10 58  1  0  0  0  0
 10 59  1  0  0  0  0
 11 12  2  0  0  0  0
 11 13  1  0  0  0  0
 13 14  1  0  0  0  0
 13 15  1  0  0  0  0
 14 60  1  0  0  0  0
 14 61  1  0  0  0  0
 14 62  1  0  0  0  0
 15 38  1  6  0  0  0
 15 16  1  0  0  0  0
 15 17  1  0  0  0  0
 16 63  1  0  0  0  0
 16 64  1  0  0  0  0
 16 65  1  0  0  0  0
 17 18  2  0  0  0  0
 17 19  1  0  0  0  0
 19 20  1  0  0  0  0
 19 66  1  0  0  0  0
 20 39  1  1  0  0  0
 20 21  1  0  0  0  0
 20 22  1  0  0  0  0
 21 67  1  0  0  0  0
 21 68  1  0  0  0  0
 22 40  1  6  0  0  0
 22 23  1  0  0  0  0
 22 24  1  0  0  0  0
 23 69  1  0  0  0  0
 24 25  1  0  0  0  0
 24 70  1  0  0  0  0
 24 71  1  0  0  0  0
 25 26  1  0  0  0  0
 25 72  1  0  0  0  0
 25 87  1  0  0  0  0
 26 27  1  0  0  0  0
 26 73  1  0  0  0  0
 26 74  1  0  0  0  0
 27 36  2  0  0  0  0
 27 28  1  0  0  0  0
 28 29  2  0  0  0  0
 28 75  1  0  0  0  0
 29 30  1  0  0  0  0
 29 35  1  0  0  0  0
 30 31  1  0  0  0  0
 30 76  1  0  0  0  0
 30 77  1  0  0  0  0
 31 32  1  0  0  0  0
 31 33  1  0  0  0  0
 31 34  1  0  0  0  0
 32 78  1  0  0  0  0
 32 79  1  0  0  0  0
 32 80  1  0  0  0  0
 33 81  1  0  0  0  0
 33 82  1  0  0  0  0
 33 83  1  0  0  0  0
 34 84  1  0  0  0  0
 34 85  1  0  0  0  0
 34 86  1  0  0  0  0
 35 36  1  0  0  0  0
M  CHG  1  25   1
M  END
>  <s_m_source_file>
BACE_29.smi

>  <i_m_source_file_index>
1

>  <i_lp_mmshare_version>
42013

>  <i_f3d_flags>
0

>  <s_epik_input>
W0NIM11bQ0BASF0xW0NIMl1bQ0gyXVtDSDJdW0NIMl1bQ0gyXVtDSDJdW0NIMl1bQ0gyXUMoPU8pTihbQ0gzXSlbQ0BASF0oW0NIM10pQyg9TylbTkhdW0NAQEhdKFtDSDJdMSlbQ0BIXShbT0hdKVtDSDJdW05IXVtDSDJdYzJbY0hdYyhvbjIpW0NIMl1DKFtDSDNdKShbQ0gzXSlbQ0gzXQ==

>  <s_epik_cmdline>
J2VwaWtfcHl0aG9uJywgJy1waCcsICc3LjAnLCAnLXRuJywgJzgnLCAnLW1hJywgJzIwMCcsICctaW1hZScsICc8aW5maWxlLm1hZT4nLCAnLW9tYWUnLCAnPG91dGZpbGUubWFlPic=

>  <r_epik_Ionization_Penalty>
0.5871

>  <r_epik_Ionization_Penalty_Charging>
0.5871

>  <r_epik_Ionization_Penalty_Neutral>
0.0000

>  <r_epik_State_Penalty>
0.6003

>  <r_epik_Charging_Adjusted_Penalty>
1.18739

>  <i_epik_Tot_Q>
1

>  <i_epik_Tot_abs_Q>
1

>  <s_lp_Force_Field>
OPLS_2005

>  <r_lp_Energy>
33.4854

>  <b_lp_Chiralities_Consistent>
1

>  <s_lp_Variant>
BACE_29.smi:1-2

>  <chiral flag>
1

>  <version>
0

>  <s_i_glide_gridfile>
second_dock_grid_2

>  <i_i_glide_lignum>
50

>  <i_i_glide_rotatable_bonds>
8

>  <r_i_docking_score>
-4.51542

>  <r_i_glide_ligand_efficiency>
-0.125428

>  <r_i_glide_ligand_efficiency_sa>
-0.414155

>  <r_i_glide_ligand_efficiency_ln>
-0.985142

>  <r_glide_XP_GScore>
-5.11572

>  <r_i_glide_gscore>
-5.11572

>  <r_i_glide_evdw>
-30.3129

>  <r_i_glide_ecoul>
-15.3085

>  <r_i_glide_energy>
-45.6214

>  <r_i_glide_einternal>
6.96758

>  <r_i_glide_emodel>
-57.4344

>  <r_glide_XP_HBond>
-0.7

>  <i_i_glide_confnum>
1

>  <i_i_glide_posenum>
15

>  <r_i_glide_eff_state_penalty>
0.6003

>  <i_glide_XP_PoseRank>
1

$$$$
