BACE_105.smi:1
 OpenBabel09291822493D
Structure written by MMmdl.
 78 81  0  0  1  0  0  0  0  0999 V2000
   19.3491   42.6910   -1.6639 C   0  0  0  0  0  0  0  0  0  0  0  0
   20.8119   42.2903   -1.5854 C   0  0  0  0  0  0  0  0  0  0  0  0
   21.5027   43.1987   -0.5549 C   0  0  0  0  0  0  0  0  0  0  0  0
   21.4522   42.2668   -2.9714 C   0  0  0  0  0  0  0  0  0  0  0  0
   22.4596   43.1828   -3.3381 C   0  0  0  0  0  0  0  0  0  0  0  0
   23.0232   43.1456   -4.6232 C   0  0  0  0  0  0  0  0  0  0  0  0
   22.5896   42.1902   -5.5505 C   0  0  0  0  0  0  0  0  0  0  0  0
   21.5861   41.2612   -5.2105 C   0  0  0  0  0  0  0  0  0  0  0  0
   21.0917   40.2461   -6.2303 C   0  0  0  0  0  0  0  0  0  0  0  0
   22.1954   39.5721   -6.9104 N   0  0  0  0  0  0  0  0  0  0  0  0
   22.1319   39.4992   -8.3705 C   0  0  0  0  0  0  0  0  0  0  0  0
   22.4833   40.8431   -9.0715 C   0  0  1  0  0  0  0  0  0  0  0  0
   23.2502   40.5501  -10.2206 O   0  0  0  0  0  0  0  0  0  0  0  0
   21.3114   41.7680   -9.5349 C   0  0  2  0  0  0  0  0  0  0  0  0
   21.1411   43.0241   -8.6420 C   0  0  0  0  0  0  0  0  0  0  0  0
   19.9937   43.9443   -9.0372 C   0  0  0  0  0  0  0  0  0  0  0  0
   20.1511   44.8440  -10.1093 C   0  0  0  0  0  0  0  0  0  0  0  0
   19.0947   45.6988  -10.4767 C   0  0  0  0  0  0  0  0  0  0  0  0
   19.2817   46.6689  -11.6232 C   0  0  0  0  0  0  0  0  0  0  0  0
   17.8706   45.6502   -9.7778 C   0  0  0  0  0  0  0  0  0  0  0  0
   17.6959   44.7412   -8.7048 C   0  0  0  0  0  0  0  0  0  0  0  0
   18.7690   43.9035   -8.3379 C   0  0  0  0  0  0  0  0  0  0  0  0
   16.5337   44.6156   -7.9734 O   0  0  0  0  0  0  0  0  0  0  0  0
   15.3272   45.2083   -8.4470 C   0  0  0  0  0  0  0  0  0  0  0  0
   14.7634   44.4714   -9.6755 C   0  0  0  0  0  0  0  0  0  0  0  0
   14.4711   42.9881   -9.4125 C   0  0  0  0  0  0  0  0  0  0  0  0
   14.0717   42.2562  -10.7065 C   0  0  0  0  0  0  0  0  0  0  0  0
   14.2223   40.8117  -10.6123 N   0  0  0  0  0  0  0  0  0  0  0  0
   15.4868   40.2368  -10.4386 C   0  0  0  0  0  0  0  0  0  0  0  0
   16.6783   40.9448  -10.7115 C   0  0  0  0  0  0  0  0  0  0  0  0
   17.9124   40.3306  -10.4266 C   0  0  0  0  0  0  0  0  0  0  0  0
   17.9095   39.0166   -9.9196 C   0  0  0  0  0  0  0  0  0  0  0  0
   16.6722   38.3720   -9.7240 C   0  0  0  0  0  0  0  0  0  0  0  0
   16.6653   36.7191   -9.2391 Cl  0  0  0  0  0  0  0  0  0  0  0  0
   15.4880   38.9732   -9.9740 N   0  0  0  0  0  0  0  0  0  0  0  0
   19.1864   41.0770  -10.6680 C   0  0  0  0  0  0  0  0  0  0  0  0
   19.3539   41.7345  -11.6968 O   0  0  0  0  0  0  0  0  0  0  0  0
   20.0458   41.0382   -9.6372 N   0  0  0  0  0  0  0  0  0  0  0  0
   21.0290   41.3006   -3.9144 C   0  0  0  0  0  0  0  0  0  0  0  0
   23.1739   41.4091   -8.4496 H   0  0  0  0  0  0  0  0  0  0  0  0
   21.5635   42.1581  -10.5241 H   0  0  0  0  0  0  0  0  0  0  0  0
   18.8602   42.1058   -2.4313 H   0  0  0  0  0  0  0  0  0  0  0  0
   19.2625   43.7417   -1.9266 H   0  0  0  0  0  0  0  0  0  0  0  0
   18.8299   42.5373   -0.7190 H   0  0  0  0  0  0  0  0  0  0  0  0
   20.8547   41.2586   -1.2402 H   0  0  0  0  0  0  0  0  0  0  0  0
   22.5523   42.9576   -0.4604 H   0  0  0  0  0  0  0  0  0  0  0  0
   21.0459   43.0904    0.4285 H   0  0  0  0  0  0  0  0  0  0  0  0
   21.4292   44.2482   -0.8348 H   0  0  0  0  0  0  0  0  0  0  0  0
   22.8173   43.9330   -2.6481 H   0  0  0  0  0  0  0  0  0  0  0  0
   23.7969   43.8520   -4.8884 H   0  0  0  0  0  0  0  0  0  0  0  0
   23.0391   42.1865   -6.5291 H   0  0  0  0  0  0  0  0  0  0  0  0
   20.4691   39.5079   -5.7247 H   0  0  0  0  0  0  0  0  0  0  0  0
   20.4365   40.7495   -6.9361 H   0  0  0  0  0  0  0  0  0  0  0  0
   23.0708   39.9897   -6.6121 H   0  0  0  0  0  0  0  0  0  0  0  0
   22.8607   38.7516   -8.6783 H   0  0  0  0  0  0  0  0  0  0  0  0
   21.1809   39.0855   -8.7009 H   0  0  0  0  0  0  0  0  0  0  0  0
   23.8988   39.8872  -10.0073 H   0  0  0  0  0  0  0  0  0  0  0  0
   20.9810   42.7353   -7.6071 H   0  0  0  0  0  0  0  0  0  0  0  0
   22.0631   43.6095   -8.6504 H   0  0  0  0  0  0  0  0  0  0  0  0
   21.0854   44.8809  -10.6509 H   0  0  0  0  0  0  0  0  0  0  0  0
   18.3372   47.1269  -11.9218 H   0  0  0  0  0  0  0  0  0  0  0  0
   19.6912   46.1498  -12.4896 H   0  0  0  0  0  0  0  0  0  0  0  0
   19.9752   47.4621  -11.3384 H   0  0  0  0  0  0  0  0  0  0  0  0
   17.0823   46.3196  -10.0796 H   0  0  0  0  0  0  0  0  0  0  0  0
   18.6410   43.2116   -7.5178 H   0  0  0  0  0  0  0  0  0  0  0  0
   14.5966   45.1526   -7.6405 H   0  0  0  0  0  0  0  0  0  0  0  0
   15.4618   46.2698   -8.6438 H   0  0  0  0  0  0  0  0  0  0  0  0
   13.8460   44.9498  -10.0125 H   0  0  0  0  0  0  0  0  0  0  0  0
   15.4674   44.5526  -10.5031 H   0  0  0  0  0  0  0  0  0  0  0  0
   15.3610   42.5363   -8.9736 H   0  0  0  0  0  0  0  0  0  0  0  0
   13.6853   42.8789   -8.6617 H   0  0  0  0  0  0  0  0  0  0  0  0
   13.0309   42.4789  -10.9438 H   0  0  0  0  0  0  0  0  0  0  0  0
   14.6542   42.6191  -11.5513 H   0  0  0  0  0  0  0  0  0  0  0  0
   13.4185   40.2721  -10.3062 H   0  0  0  0  0  0  0  0  0  0  0  0
   16.6717   41.9558  -11.0871 H   0  0  0  0  0  0  0  0  0  0  0  0
   18.8304   38.4879   -9.7145 H   0  0  0  0  0  0  0  0  0  0  0  0
   19.7693   40.4868   -8.8375 H   0  0  0  0  0  0  0  0  0  0  0  0
   20.2525   40.5935   -3.6494 H   0  0  0  0  0  0  0  0  0  0  0  0
  1  2  1  0  0  0  0
  1 42  1  0  0  0  0
  1 43  1  0  0  0  0
  1 44  1  0  0  0  0
  2  3  1  0  0  0  0
  2  4  1  0  0  0  0
  2 45  1  0  0  0  0
  3 46  1  0  0  0  0
  3 47  1  0  0  0  0
  3 48  1  0  0  0  0
  4 39  1  0  0  0  0
  4  5  2  0  0  0  0
  5  6  1  0  0  0  0
  5 49  1  0  0  0  0
  6  7  2  0  0  0  0
  6 50  1  0  0  0  0
  7  8  1  0  0  0  0
  7 51  1  0  0  0  0
  8  9  1  0  0  0  0
  8 39  2  0  0  0  0
  9 10  1  0  0  0  0
  9 52  1  0  0  0  0
  9 53  1  0  0  0  0
 10 11  1  0  0  0  0
 10 54  1  0  0  0  0
 11 12  1  0  0  0  0
 11 55  1  0  0  0  0
 11 56  1  0  0  0  0
 12 40  1  1  0  0  0
 12 13  1  0  0  0  0
 12 14  1  0  0  0  0
 13 57  1  0  0  0  0
 14 41  1  6  0  0  0
 14 38  1  0  0  0  0
 14 15  1  0  0  0  0
 15 16  1  0  0  0  0
 15 58  1  0  0  0  0
 15 59  1  0  0  0  0
 16 22  1  0  0  0  0
 16 17  2  0  0  0  0
 17 18  1  0  0  0  0
 17 60  1  0  0  0  0
 18 19  1  0  0  0  0
 18 20  2  0  0  0  0
 19 61  1  0  0  0  0
 19 62  1  0  0  0  0
 19 63  1  0  0  0  0
 20 21  1  0  0  0  0
 20 64  1  0  0  0  0
 21 22  2  0  0  0  0
 21 23  1  0  0  0  0
 22 65  1  0  0  0  0
 23 24  1  0  0  0  0
 24 25  1  0  0  0  0
 24 66  1  0  0  0  0
 24 67  1  0  0  0  0
 25 26  1  0  0  0  0
 25 68  1  0  0  0  0
 25 69  1  0  0  0  0
 26 27  1  0  0  0  0
 26 70  1  0  0  0  0
 26 71  1  0  0  0  0
 27 28  1  0  0  0  0
 27 72  1  0  0  0  0
 27 73  1  0  0  0  0
 28 29  1  0  0  0  0
 28 74  1  0  0  0  0
 29 35  1  0  0  0  0
 29 30  2  0  0  0  0
 30 31  1  0  0  0  0
 30 75  1  0  0  0  0
 31 32  2  0  0  0  0
 31 36  1  0  0  0  0
 32 33  1  0  0  0  0
 32 76  1  0  0  0  0
 33 34  1  0  0  0  0
 33 35  2  0  0  0  0
 36 37  2  0  0  0  0
 36 38  1  0  0  0  0
 38 77  1  0  0  0  0
 39 78  1  0  0  0  0
M  END
>  <s_m_source_file>
BACE_105.smi

>  <i_m_source_file_index>
1

>  <i_lp_mmshare_version>
42013

>  <i_f3d_flags>
0

>  <s_epik_input>
W0NIM11bQ0hdKFtDSDNdKWMxW2NIXVtjSF1bY0hdYyhbY0hdMSlbQ0gyXVtOSF1bQ0gyXVtDQEBIXShbT0hdKVtDQEhdKFtDSDJdMilbTkhdQyg9TyljKFtjSF1jKENsKW4zKVtjSF1jM1tOSF1bQ0gyXVtDSDJdW0NIMl1bQ0gyXU9jKFtjSF00KVtjSF1jKFtjSF1jMjQpW0NIM10=

>  <s_epik_cmdline>
J2VwaWtfcHl0aG9uJywgJy1waCcsICc3LjAnLCAnLXRuJywgJzgnLCAnLW1hJywgJzIwMCcsICctaW1hZScsICc8aW5maWxlLm1hZT4nLCAnLW9tYWUnLCAnPG91dGZpbGUubWFlPic=

>  <r_lp_tautomer_probability>
1

>  <r_epik_Ionization_Penalty>
2.0161

>  <r_epik_Ionization_Penalty_Charging>
0.0000

>  <r_epik_Ionization_Penalty_Neutral>
2.0161

>  <r_epik_State_Penalty>
2.1460

>  <r_epik_Charging_Adjusted_Penalty>
2.14597

>  <i_epik_Tot_Q>
0

>  <i_epik_Tot_abs_Q>
0

>  <s_lp_Force_Field>
OPLS_2005

>  <r_lp_Energy>
28.8296

>  <b_lp_Chiralities_Consistent>
1

>  <s_lp_Variant>
BACE_105.smi:1-2

>  <chiral flag>
1

>  <version>
0

>  <s_i_glide_gridfile>
second_dock_grid_2

>  <i_i_glide_lignum>
215

>  <i_i_glide_rotatable_bonds>
7

>  <r_i_docking_score>
-2.80641

>  <r_i_glide_ligand_efficiency>
-0.0719593

>  <r_i_glide_ligand_efficiency_sa>
-0.244029

>  <r_i_glide_ligand_efficiency_ln>
-0.601775

>  <r_glide_XP_GScore>
-4.95241

>  <r_i_glide_gscore>
-4.95241

>  <r_i_glide_evdw>
-42.1973

>  <r_i_glide_ecoul>
-6.10501

>  <r_i_glide_energy>
-48.3023

>  <r_i_glide_einternal>
7.69133

>  <r_i_glide_emodel>
-61.5694

>  <r_glide_XP_HBond>
-0.677161

>  <i_i_glide_confnum>
1

>  <i_i_glide_posenum>
11

>  <r_i_glide_eff_state_penalty>
2.146

>  <i_glide_XP_PoseRank>
1

$$$$
