BACE_55.smi:1
 OpenBabel09291822493D
Structure written by MMmdl.
 86 88  0  0  1  0  0  0  0  0999 V2000
   29.2626   46.9773  -12.9242 C   0  0  0  0  0  0  0  0  0  0  0  0
   28.9019   45.9876  -14.0414 C   0  0  0  0  0  0  0  0  0  0  0  0
   27.6394   46.4242  -14.8022 C   0  0  0  0  0  0  0  0  0  0  0  0
   28.7771   44.5674  -13.5003 C   0  0  0  0  0  0  0  0  0  0  0  0
   27.7657   44.2343  -12.5706 C   0  0  0  0  0  0  0  0  0  0  0  0
   27.6707   42.9332  -12.0192 C   0  0  0  0  0  0  0  0  0  0  0  0
   28.6117   41.9602  -12.4397 C   0  0  0  0  0  0  0  0  0  0  0  0
   29.6068   42.2765  -13.3828 C   0  0  0  0  0  0  0  0  0  0  0  0
   29.6923   43.5772  -13.9111 C   0  0  0  0  0  0  0  0  0  0  0  0
   26.5657   42.6292  -10.9865 C   0  0  0  0  0  0  0  0  0  0  0  0
   26.6765   41.1851  -10.4536 C   0  0  0  0  0  0  0  0  0  0  0  0
   26.7421   43.5901   -9.7878 C   0  0  0  0  0  0  0  0  0  0  0  0
   25.2595   42.8318  -11.6537 N   0  0  0  0  0  0  0  0  0  0  0  0
   24.0185   42.9274  -10.8694 C   0  0  0  0  0  0  0  0  0  0  0  0
   23.6014   41.6103  -10.1622 C   0  0  1  0  0  0  0  0  0  0  0  0
   23.9101   41.8437   -8.7988 O   0  0  0  0  0  0  0  0  0  0  0  0
   22.1045   41.2196  -10.2471 C   0  0  2  0  0  0  0  0  0  0  0  0
   21.7888   39.8104   -9.6472 C   0  0  0  0  0  0  0  0  0  0  0  0
   22.0434   39.5815   -8.1390 C   0  0  2  0  0  0  0  0  0  0  0  0
   21.6507   38.1501   -7.7620 C   0  0  0  0  0  0  0  0  0  0  0  0
   21.2947   40.5949   -7.2482 C   0  0  0  0  0  0  0  0  0  0  0  0
   21.7881   40.6534   -5.7899 C   0  0  0  0  0  0  0  0  0  0  0  0
   21.1288   41.7943   -4.9987 C   0  0  0  0  0  0  0  0  0  0  0  0
   21.6330   43.2066   -5.3627 C   0  0  0  0  0  0  0  0  0  0  0  0
   20.5659   44.3124   -5.2043 C   0  0  0  0  0  0  0  0  0  0  0  0
   19.8563   44.7074   -6.5149 C   0  0  0  0  0  0  0  0  0  0  0  0
   18.9016   43.6454   -7.0814 C   0  0  0  0  0  0  0  0  0  0  0  0
   18.4457   44.0085   -8.4179 N   0  0  0  0  0  0  0  0  0  0  0  0
   18.3297   42.8919   -9.2471 C   0  0  0  0  0  0  0  0  0  0  0  0
   19.2526   42.7256  -10.2988 C   0  0  0  0  0  0  0  0  0  0  0  0
   19.2698   41.5375  -11.0563 C   0  0  0  0  0  0  0  0  0  0  0  0
   18.2674   40.5657  -10.8418 C   0  0  0  0  0  0  0  0  0  0  0  0
   17.3127   40.7486   -9.8227 C   0  0  0  0  0  0  0  0  0  0  0  0
   17.3578   41.8958   -9.0066 C   0  0  0  0  0  0  0  0  0  0  0  0
   20.3558   41.2903  -12.0617 C   0  0  0  0  0  0  0  0  0  0  0  0
   20.0617   41.1042  -13.2373 O   0  0  0  0  0  0  0  0  0  0  0  0
   21.6341   41.2467  -11.6360 N   0  0  0  0  0  0  0  0  0  0  0  0
   24.1523   40.7568  -10.5552 H   0  0  0  0  0  0  0  0  0  0  0  0
   21.5665   41.9899   -9.7044 H   0  0  0  0  0  0  0  0  0  0  0  0
   23.1147   39.6630   -7.9573 H   0  0  0  0  0  0  0  0  0  0  0  0
   30.1848   46.6780  -12.4225 H   0  0  0  0  0  0  0  0  0  0  0  0
   28.4800   47.0346  -12.1671 H   0  0  0  0  0  0  0  0  0  0  0  0
   29.4117   47.9809  -13.3223 H   0  0  0  0  0  0  0  0  0  0  0  0
   29.7256   45.9953  -14.7556 H   0  0  0  0  0  0  0  0  0  0  0  0
   27.4343   45.7497  -15.6319 H   0  0  0  0  0  0  0  0  0  0  0  0
   27.7647   47.4270  -15.2123 H   0  0  0  0  0  0  0  0  0  0  0  0
   26.7611   46.4359  -14.1574 H   0  0  0  0  0  0  0  0  0  0  0  0
   27.0630   44.9938  -12.2633 H   0  0  0  0  0  0  0  0  0  0  0  0
   28.5918   40.9478  -12.0660 H   0  0  0  0  0  0  0  0  0  0  0  0
   30.3060   41.5137  -13.6980 H   0  0  0  0  0  0  0  0  0  0  0  0
   30.4679   43.8053  -14.6270 H   0  0  0  0  0  0  0  0  0  0  0  0
   27.6599   40.9860  -10.0469 H   0  0  0  0  0  0  0  0  0  0  0  0
   26.4623   40.4441  -11.2253 H   0  0  0  0  0  0  0  0  0  0  0  0
   26.0242   40.9807   -9.6170 H   0  0  0  0  0  0  0  0  0  0  0  0
   27.7469   43.5064   -9.3717 H   0  0  0  0  0  0  0  0  0  0  0  0
   26.0494   43.3690   -8.9741 H   0  0  0  0  0  0  0  0  0  0  0  0
   26.5875   44.6336  -10.0680 H   0  0  0  0  0  0  0  0  0  0  0  0
   25.1244   42.0553  -12.3014 H   0  0  0  0  0  0  0  0  0  0  0  0
   24.0748   43.7583  -10.1665 H   0  0  0  0  0  0  0  0  0  0  0  0
   23.2262   43.2213  -11.5547 H   0  0  0  0  0  0  0  0  0  0  0  0
   23.4262   42.5934   -8.4967 H   0  0  0  0  0  0  0  0  0  0  0  0
   20.7455   39.5636   -9.8355 H   0  0  0  0  0  0  0  0  0  0  0  0
   22.3618   39.0708  -10.2106 H   0  0  0  0  0  0  0  0  0  0  0  0
   20.5656   38.0264   -7.7614 H   0  0  0  0  0  0  0  0  0  0  0  0
   22.0193   37.8884   -6.7717 H   0  0  0  0  0  0  0  0  0  0  0  0
   22.0622   37.4311   -8.4667 H   0  0  0  0  0  0  0  0  0  0  0  0
   21.4058   41.5938   -7.6578 H   0  0  0  0  0  0  0  0  0  0  0  0
   20.2242   40.3885   -7.2711 H   0  0  0  0  0  0  0  0  0  0  0  0
   21.5639   39.7066   -5.2980 H   0  0  0  0  0  0  0  0  0  0  0  0
   22.8678   40.7666   -5.7573 H   0  0  0  0  0  0  0  0  0  0  0  0
   20.0599   41.7283   -5.1541 H   0  0  0  0  0  0  0  0  0  0  0  0
   21.2755   41.6316   -3.9301 H   0  0  0  0  0  0  0  0  0  0  0  0
   22.4819   43.4374   -4.7156 H   0  0  0  0  0  0  0  0  0  0  0  0
   22.0399   43.2412   -6.3736 H   0  0  0  0  0  0  0  0  0  0  0  0
   19.8405   44.0443   -4.4351 H   0  0  0  0  0  0  0  0  0  0  0  0
   21.0694   45.2074   -4.8400 H   0  0  0  0  0  0  0  0  0  0  0  0
   19.2952   45.6257   -6.3459 H   0  0  0  0  0  0  0  0  0  0  0  0
   20.6158   44.9532   -7.2577 H   0  0  0  0  0  0  0  0  0  0  0  0
   19.4048   42.6782   -7.1096 H   0  0  0  0  0  0  0  0  0  0  0  0
   18.0297   43.5217   -6.4424 H   0  0  0  0  0  0  0  0  0  0  0  0
   18.9994   44.7558   -8.8080 H   0  0  0  0  0  0  0  0  0  0  0  0
   20.0034   43.4843  -10.4712 H   0  0  0  0  0  0  0  0  0  0  0  0
   18.2516   39.6615  -11.4330 H   0  0  0  0  0  0  0  0  0  0  0  0
   16.5650   39.9886   -9.6384 H   0  0  0  0  0  0  0  0  0  0  0  0
   16.6529   42.0079   -8.1933 H   0  0  0  0  0  0  0  0  0  0  0  0
   22.3399   41.0752  -12.3427 H   0  0  0  0  0  0  0  0  0  0  0  0
  1  2  1  0  0  0  0
  1 41  1  0  0  0  0
  1 42  1  0  0  0  0
  1 43  1  0  0  0  0
  2  3  1  0  0  0  0
  2  4  1  0  0  0  0
  2 44  1  0  0  0  0
  3 45  1  0  0  0  0
  3 46  1  0  0  0  0
  3 47  1  0  0  0  0
  4  9  1  0  0  0  0
  4  5  2  0  0  0  0
  5  6  1  0  0  0  0
  5 48  1  0  0  0  0
  6  7  2  0  0  0  0
  6 10  1  0  0  0  0
  7  8  1  0  0  0  0
  7 49  1  0  0  0  0
  8  9  2  0  0  0  0
  8 50  1  0  0  0  0
  9 51  1  0  0  0  0
 10 11  1  0  0  0  0
 10 12  1  0  0  0  0
 10 13  1  0  0  0  0
 11 52  1  0  0  0  0
 11 53  1  0  0  0  0
 11 54  1  0  0  0  0
 12 55  1  0  0  0  0
 12 56  1  0  0  0  0
 12 57  1  0  0  0  0
 13 14  1  0  0  0  0
 13 58  1  0  0  0  0
 14 15  1  0  0  0  0
 14 59  1  0  0  0  0
 14 60  1  0  0  0  0
 15 38  1  6  0  0  0
 15 16  1  0  0  0  0
 15 17  1  0  0  0  0
 16 61  1  0  0  0  0
 17 39  1  1  0  0  0
 17 37  1  0  0  0  0
 17 18  1  0  0  0  0
 18 19  1  0  0  0  0
 18 62  1  0  0  0  0
 18 63  1  0  0  0  0
 19 40  1  1  0  0  0
 19 20  1  0  0  0  0
 19 21  1  0  0  0  0
 20 64  1  0  0  0  0
 20 65  1  0  0  0  0
 20 66  1  0  0  0  0
 21 22  1  0  0  0  0
 21 67  1  0  0  0  0
 21 68  1  0  0  0  0
 22 23  1  0  0  0  0
 22 69  1  0  0  0  0
 22 70  1  0  0  0  0
 23 24  1  0  0  0  0
 23 71  1  0  0  0  0
 23 72  1  0  0  0  0
 24 25  1  0  0  0  0
 24 73  1  0  0  0  0
 24 74  1  0  0  0  0
 25 26  1  0  0  0  0
 25 75  1  0  0  0  0
 25 76  1  0  0  0  0
 26 27  1  0  0  0  0
 26 77  1  0  0  0  0
 26 78  1  0  0  0  0
 27 28  1  0  0  0  0
 27 79  1  0  0  0  0
 27 80  1  0  0  0  0
 28 29  1  0  0  0  0
 28 81  1  0  0  0  0
 29 34  1  0  0  0  0
 29 30  2  0  0  0  0
 30 31  1  0  0  0  0
 30 82  1  0  0  0  0
 31 32  2  0  0  0  0
 31 35  1  0  0  0  0
 32 33  1  0  0  0  0
 32 83  1  0  0  0  0
 33 34  2  0  0  0  0
 33 84  1  0  0  0  0
 34 85  1  0  0  0  0
 35 36  2  0  0  0  0
 35 37  1  0  0  0  0
 37 86  1  0  0  0  0
M  END
>  <s_m_source_file>
BACE_55.smi

>  <i_m_source_file_index>
1

>  <i_lp_mmshare_version>
42013

>  <i_f3d_flags>
0

>  <s_epik_input>
W0NIM11bQ0hdKFtDSDNdKWMxW2NIXWMoW2NIXVtjSF1bY0hdMSlDKFtDSDNdKShbQ0gzXSlbTkhdW0NIMl1bQ0BASF0oW09IXSlbQ0BASF0oW05IXUMoPU8pYyhbY0hdYzIzKVtjSF1bY0hdW2NIXTMpW0NIMl1bQ0BIXShbQ0gzXSlbQ0gyXVtDSDJdW0NIMl1bQ0gyXVtDSDJdW0NIMl1bQ0gyXVtOSF0y

>  <s_epik_cmdline>
J2VwaWtfcHl0aG9uJywgJy1waCcsICc3LjAnLCAnLXRuJywgJzgnLCAnLW1hJywgJzIwMCcsICctaW1hZScsICc8aW5maWxlLm1hZT4nLCAnLW9tYWUnLCAnPG91dGZpbGUubWFlPic=

>  <r_epik_Ionization_Penalty>
2.1302

>  <r_epik_Ionization_Penalty_Charging>
0.0000

>  <r_epik_Ionization_Penalty_Neutral>
2.1302

>  <r_epik_State_Penalty>
2.2676

>  <r_epik_Charging_Adjusted_Penalty>
2.26762

>  <i_epik_Tot_Q>
0

>  <i_epik_Tot_abs_Q>
0

>  <s_lp_Force_Field>
OPLS_2005

>  <r_lp_Energy>
48.2193

>  <b_lp_Chiralities_Consistent>
1

>  <s_lp_Variant>
BACE_55.smi:1-2

>  <chiral flag>
1

>  <version>
0

>  <s_i_glide_gridfile>
second_dock_grid_2

>  <i_i_glide_lignum>
107

>  <i_i_glide_rotatable_bonds>
7

>  <r_i_docking_score>
-2.54484

>  <r_i_glide_ligand_efficiency>
-0.0687795

>  <r_i_glide_ligand_efficiency_sa>
-0.229188

>  <r_i_glide_ligand_efficiency_ln>
-0.551916

>  <r_glide_XP_GScore>
-4.81244

>  <r_i_glide_gscore>
-4.81244

>  <r_i_glide_evdw>
-36.8364

>  <r_i_glide_ecoul>
-8.60295

>  <r_i_glide_energy>
-45.4394

>  <r_i_glide_einternal>
6.47326

>  <r_i_glide_emodel>
-59.5266

>  <r_glide_XP_HBond>
-1.3078

>  <i_i_glide_confnum>
1

>  <i_i_glide_posenum>
7

>  <r_i_glide_eff_state_penalty>
2.2676

>  <i_glide_XP_PoseRank>
1

$$$$
