BACE_71.smi:1
 OpenBabel09291822493D
Structure written by MMmdl.
 85 88  0  0  1  0  0  0  0  0999 V2000
   20.3582   41.2481   -2.2765 C   0  0  0  0  0  0  0  0  0  0  0  0
   21.6494   41.5770   -3.0479 C   0  0  0  0  0  0  0  0  0  0  0  0
   22.2956   42.8928   -2.5924 C   0  0  0  0  0  0  0  0  0  0  0  0
   21.3622   41.5755   -4.5429 C   0  0  0  0  0  0  0  0  0  0  0  0
   21.8652   40.5486   -5.3708 C   0  0  0  0  0  0  0  0  0  0  0  0
   21.4771   40.4754   -6.7275 C   0  0  0  0  0  0  0  0  0  0  0  0
   22.0147   39.3673   -7.6206 C   0  0  0  0  0  0  0  0  0  0  0  0
   23.1645   39.8185   -8.4399 N   0  3  0  0  0  0  0  0  0  0  0  0
   22.7996   40.7287   -9.5487 C   0  0  0  0  0  0  0  0  0  0  0  0
   23.9960   41.3267  -10.3120 C   0  0  1  0  0  0  0  0  0  0  0  0
   23.3677   42.1804  -11.2400 O   0  0  0  0  0  0  0  0  0  0  0  0
   24.9960   42.1316   -9.4385 C   0  0  2  0  0  0  0  0  0  0  0  0
   24.4587   43.4726   -8.8720 C   0  0  0  0  0  0  0  0  0  0  0  0
   25.0543   43.8768   -7.5067 C   0  0  2  0  0  0  0  0  0  0  0  0
   24.3630   45.1056   -6.8874 C   0  0  0  0  0  0  0  0  0  0  0  0
   25.4751   46.0247   -6.3626 C   0  0  0  0  0  0  0  0  0  0  0  0
   26.7457   45.1733   -6.3418 C   0  0  2  0  0  0  0  0  0  0  0  0
   28.0414   45.9972   -6.4337 C   0  0  0  0  0  0  0  0  0  0  0  0
   29.2988   45.1797   -6.0942 C   0  0  0  0  0  0  0  0  0  0  0  0
   30.5918   45.7886   -6.6664 C   0  0  0  0  0  0  0  0  0  0  0  0
   30.8159   45.4891   -8.1625 C   0  0  0  0  0  0  0  0  0  0  0  0
   31.2137   44.0272   -8.4206 C   0  0  0  0  0  0  0  0  0  0  0  0
   31.4738   43.7514   -9.8260 N   0  0  0  0  0  0  0  0  0  0  0  0
   30.4692   43.4546  -10.7614 C   0  0  0  0  0  0  0  0  0  0  0  0
   30.8695   43.3535  -12.1088 C   0  0  0  0  0  0  0  0  0  0  0  0
   29.9300   43.0998  -13.1269 C   0  0  0  0  0  0  0  0  0  0  0  0
   28.5742   42.9334  -12.7846 C   0  0  0  0  0  0  0  0  0  0  0  0
   28.1479   43.0154  -11.4437 C   0  0  0  0  0  0  0  0  0  0  0  0
   29.1021   43.2773  -10.4284 C   0  0  0  0  0  0  0  0  0  0  0  0
   26.6781   42.9298  -11.1465 C   0  0  0  0  0  0  0  0  0  0  0  0
   25.8684   43.4475  -11.9140 O   0  0  0  0  0  0  0  0  0  0  0  0
   26.3350   42.2494  -10.0401 N   0  0  0  0  0  0  0  0  0  0  0  0
   30.3585   43.0632  -14.5864 C   0  0  0  0  0  0  0  0  0  0  0  0
   29.6603   42.1500  -15.2574 F   0  0  0  0  0  0  0  0  0  0  0  0
   30.1280   44.2568  -15.1355 F   0  0  0  0  0  0  0  0  0  0  0  0
   31.6566   42.7765  -14.7057 F   0  0  0  0  0  0  0  0  0  0  0  0
   26.5457   44.2291   -7.5294 C   0  0  0  0  0  0  0  0  0  0  0  0
   20.5692   41.4293   -7.2411 C   0  0  0  0  0  0  0  0  0  0  0  0
   20.1273   42.4962   -6.4406 C   0  0  0  0  0  0  0  0  0  0  0  0
   20.5258   42.5712   -5.0951 C   0  0  0  0  0  0  0  0  0  0  0  0
   24.5215   40.5334  -10.8400 H   0  0  0  0  0  0  0  0  0  0  0  0
   25.1715   41.4925   -8.5803 H   0  0  0  0  0  0  0  0  0  0  0  0
   24.9174   43.0494   -6.8095 H   0  0  0  0  0  0  0  0  0  0  0  0
   26.7440   44.5915   -5.4185 H   0  0  0  0  0  0  0  0  0  0  0  0
   20.0495   40.2318   -2.5178 H   0  0  0  0  0  0  0  0  0  0  0  0
   19.5450   41.9254   -2.5404 H   0  0  0  0  0  0  0  0  0  0  0  0
   20.4615   41.2997   -1.1956 H   0  0  0  0  0  0  0  0  0  0  0  0
   22.3640   40.7806   -2.8402 H   0  0  0  0  0  0  0  0  0  0  0  0
   23.2596   43.0350   -3.0827 H   0  0  0  0  0  0  0  0  0  0  0  0
   22.4602   42.9107   -1.5157 H   0  0  0  0  0  0  0  0  0  0  0  0
   21.6719   43.7482   -2.8342 H   0  0  0  0  0  0  0  0  0  0  0  0
   22.5171   39.7945   -4.9541 H   0  0  0  0  0  0  0  0  0  0  0  0
   22.3442   38.5442   -6.9882 H   0  0  0  0  0  0  0  0  0  0  0  0
   21.2205   38.9713   -8.2549 H   0  0  0  0  0  0  0  0  0  0  0  0
   23.8174   40.2846   -7.8279 H   0  0  0  0  0  0  0  0  0  0  0  0
   22.1593   40.1819  -10.2432 H   0  0  0  0  0  0  0  0  0  0  0  0
   22.2050   41.5537   -9.1729 H   0  0  0  0  0  0  0  0  0  0  0  0
   23.6622   41.9197  -12.1087 H   0  0  0  0  0  0  0  0  0  0  0  0
   24.5882   44.2759   -9.5989 H   0  0  0  0  0  0  0  0  0  0  0  0
   23.3814   43.3954   -8.7329 H   0  0  0  0  0  0  0  0  0  0  0  0
   23.7455   45.6380   -7.6131 H   0  0  0  0  0  0  0  0  0  0  0  0
   23.7028   44.7932   -6.0765 H   0  0  0  0  0  0  0  0  0  0  0  0
   25.5982   46.8634   -7.0491 H   0  0  0  0  0  0  0  0  0  0  0  0
   25.2394   46.4369   -5.3804 H   0  0  0  0  0  0  0  0  0  0  0  0
   28.1201   46.4245   -7.4328 H   0  0  0  0  0  0  0  0  0  0  0  0
   27.9884   46.8483   -5.7529 H   0  0  0  0  0  0  0  0  0  0  0  0
   29.3817   45.1184   -5.0077 H   0  0  0  0  0  0  0  0  0  0  0  0
   29.1914   44.1506   -6.4333 H   0  0  0  0  0  0  0  0  0  0  0  0
   30.5828   46.8674   -6.5017 H   0  0  0  0  0  0  0  0  0  0  0  0
   31.4465   45.4157   -6.1015 H   0  0  0  0  0  0  0  0  0  0  0  0
   29.9264   45.7465   -8.7386 H   0  0  0  0  0  0  0  0  0  0  0  0
   31.6129   46.1376   -8.5292 H   0  0  0  0  0  0  0  0  0  0  0  0
   32.1240   43.7980   -7.8650 H   0  0  0  0  0  0  0  0  0  0  0  0
   30.4600   43.3495   -8.0399 H   0  0  0  0  0  0  0  0  0  0  0  0
   32.4048   43.9454  -10.1653 H   0  0  0  0  0  0  0  0  0  0  0  0
   31.9080   43.4949  -12.3717 H   0  0  0  0  0  0  0  0  0  0  0  0
   27.8503   42.7586  -13.5658 H   0  0  0  0  0  0  0  0  0  0  0  0
   28.7737   43.3799   -9.4053 H   0  0  0  0  0  0  0  0  0  0  0  0
   27.0921   41.8183   -9.5334 H   0  0  0  0  0  0  0  0  0  0  0  0
   27.1844   43.3503   -7.4623 H   0  0  0  0  0  0  0  0  0  0  0  0
   26.7884   44.7446   -8.4596 H   0  0  0  0  0  0  0  0  0  0  0  0
   20.2106   41.3603   -8.2572 H   0  0  0  0  0  0  0  0  0  0  0  0
   19.4440   43.2296   -6.8440 H   0  0  0  0  0  0  0  0  0  0  0  0
   20.1286   43.3599   -4.4747 H   0  0  0  0  0  0  0  0  0  0  0  0
   23.6250   39.0131   -8.8560 H   0  0  0  0  0  0  0  0  0  0  0  0
  1  2  1  0  0  0  0
  1 45  1  0  0  0  0
  1 46  1  0  0  0  0
  1 47  1  0  0  0  0
  2  3  1  0  0  0  0
  2  4  1  0  0  0  0
  2 48  1  0  0  0  0
  3 49  1  0  0  0  0
  3 50  1  0  0  0  0
  3 51  1  0  0  0  0
  4 40  1  0  0  0  0
  4  5  2  0  0  0  0
  5  6  1  0  0  0  0
  5 52  1  0  0  0  0
  6  7  1  0  0  0  0
  6 38  2  0  0  0  0
  7  8  1  0  0  0  0
  7 53  1  0  0  0  0
  7 54  1  0  0  0  0
  8  9  1  0  0  0  0
  8 55  1  0  0  0  0
  8 85  1  0  0  0  0
  9 10  1  0  0  0  0
  9 56  1  0  0  0  0
  9 57  1  0  0  0  0
 10 41  1  6  0  0  0
 10 11  1  0  0  0  0
 10 12  1  0  0  0  0
 11 58  1  0  0  0  0
 12 42  1  1  0  0  0
 12 32  1  0  0  0  0
 12 13  1  0  0  0  0
 13 14  1  0  0  0  0
 13 59  1  0  0  0  0
 13 60  1  0  0  0  0
 14 43  1  1  0  0  0
 14 37  1  0  0  0  0
 14 15  1  0  0  0  0
 15 16  1  0  0  0  0
 15 61  1  0  0  0  0
 15 62  1  0  0  0  0
 16 17  1  0  0  0  0
 16 63  1  0  0  0  0
 16 64  1  0  0  0  0
 17 44  1  1  0  0  0
 17 18  1  0  0  0  0
 17 37  1  0  0  0  0
 18 19  1  0  0  0  0
 18 65  1  0  0  0  0
 18 66  1  0  0  0  0
 19 20  1  0  0  0  0
 19 67  1  0  0  0  0
 19 68  1  0  0  0  0
 20 21  1  0  0  0  0
 20 69  1  0  0  0  0
 20 70  1  0  0  0  0
 21 22  1  0  0  0  0
 21 71  1  0  0  0  0
 21 72  1  0  0  0  0
 22 23  1  0  0  0  0
 22 73  1  0  0  0  0
 22 74  1  0  0  0  0
 23 24  1  0  0  0  0
 23 75  1  0  0  0  0
 24 29  1  0  0  0  0
 24 25  2  0  0  0  0
 25 26  1  0  0  0  0
 25 76  1  0  0  0  0
 26 27  2  0  0  0  0
 26 33  1  0  0  0  0
 27 28  1  0  0  0  0
 27 77  1  0  0  0  0
 28 29  2  0  0  0  0
 28 30  1  0  0  0  0
 29 78  1  0  0  0  0
 30 31  2  0  0  0  0
 30 32  1  0  0  0  0
 32 79  1  0  0  0  0
 33 34  1  0  0  0  0
 33 35  1  0  0  0  0
 33 36  1  0  0  0  0
 37 80  1  0  0  0  0
 37 81  1  0  0  0  0
 38 39  1  0  0  0  0
 38 82  1  0  0  0  0
 39 40  2  0  0  0  0
 39 83  1  0  0  0  0
 40 84  1  0  0  0  0
M  CHG  1   8   1
M  END
>  <s_m_source_file>
BACE_71.smi

>  <i_m_source_file_index>
1

>  <i_lp_mmshare_version>
42013

>  <i_f3d_flags>
0

>  <s_epik_input>
W0NIM11bQ0hdKFtDSDNdKWMxW2NIXWMoW2NIXVtjSF1bY0hdMSlbQ0gyXVtOSF1bQ0gyXVtDQEBIXShbT0hdKVtDQEhdKFtDSDJdW0NASF0yMylbTkhdQyg9TyljNFtjSF1jKEMoRikoRilGKVtjSF1jKFtjSF00KVtOSF1bQ0gyXVtDSDJdW0NIMl1bQ0gyXVtDSDJdW0NASF0oW0NIMl0zKVtDSDJdW0NIMl0y

>  <s_epik_cmdline>
J2VwaWtfcHl0aG9uJywgJy1waCcsICc3LjAnLCAnLXRuJywgJzgnLCAnLW1hJywgJzIwMCcsICctaW1hZScsICc8aW5maWxlLm1hZT4nLCAnLW9tYWUnLCAnPG91dGZpbGUubWFlPic=

>  <r_epik_Ionization_Penalty>
0.0165

>  <r_epik_Ionization_Penalty_Charging>
0.0164

>  <r_epik_Ionization_Penalty_Neutral>
0.0000

>  <r_epik_State_Penalty>
0.0130

>  <r_epik_Charging_Adjusted_Penalty>
0.0294306

>  <i_epik_Tot_Q>
1

>  <i_epik_Tot_abs_Q>
1

>  <s_lp_Force_Field>
OPLS_2005

>  <r_lp_Energy>
43.612

>  <b_lp_Chiralities_Consistent>
1

>  <s_lp_Variant>
BACE_71.smi:1-1

>  <chiral flag>
1

>  <version>
0

>  <s_i_glide_gridfile>
second_dock_grid_2

>  <i_i_glide_lignum>
142

>  <i_i_glide_rotatable_bonds>
8

>  <r_i_docking_score>
-3.47591

>  <r_i_glide_ligand_efficiency>
-0.0868978

>  <r_i_glide_ligand_efficiency_sa>
-0.297186

>  <r_i_glide_ligand_efficiency_ln>
-0.74131

>  <r_glide_XP_GScore>
-3.48891

>  <r_i_glide_gscore>
-3.48891

>  <r_i_glide_evdw>
-35.0059

>  <r_i_glide_ecoul>
-8.97421

>  <r_i_glide_energy>
-43.9801

>  <r_i_glide_einternal>
6.66861

>  <r_i_glide_emodel>
-56.8372

>  <r_glide_XP_HBond>
-0.544923

>  <i_i_glide_confnum>
1

>  <i_i_glide_posenum>
2

>  <r_i_glide_eff_state_penalty>
0.013

>  <i_glide_XP_PoseRank>
1

$$$$
