BACE_26.smi:1
 OpenBabel09291822493D
Structure written by MMmdl.
 92 93  0  0  1  0  0  0  0  0999 V2000
   27.0774   48.8268    0.0615 C   0  0  0  0  0  0  0  0  0  0  0  0
   27.9003   49.4990   -1.0476 C   0  0  0  0  0  0  0  0  0  0  0  0
   29.3982   49.2184   -0.8581 C   0  0  0  0  0  0  0  0  0  0  0  0
   27.4545   49.1032   -2.4739 C   0  0  0  0  0  0  0  0  0  0  0  0
   25.9847   49.3255   -2.8135 C   0  0  0  0  0  0  0  0  0  0  0  0
   25.3512   48.4830   -3.7489 C   0  0  0  0  0  0  0  0  0  0  0  0
   23.9880   48.6830   -4.0799 C   0  0  0  0  0  0  0  0  0  0  0  0
   23.3304   49.7497   -3.4193 C   0  0  0  0  0  0  0  0  0  0  0  0
   23.9258   50.5795   -2.5409 N   0  0  0  0  0  0  0  0  0  0  0  0
   25.2261   50.3757   -2.2535 C   0  0  0  0  0  0  0  0  0  0  0  0
   23.2938   47.7660   -5.1081 C   0  0  0  0  0  0  0  0  0  0  0  0
   23.4968   46.2972   -4.6778 C   0  0  0  0  0  0  0  0  0  0  0  0
   23.9578   47.9716   -6.4860 C   0  0  0  0  0  0  0  0  0  0  0  0
   21.8506   48.1128   -5.1977 N   0  0  0  0  0  0  0  0  0  0  0  0
   20.9575   47.4887   -6.1914 C   0  0  0  0  0  0  0  0  0  0  0  0
   20.4383   46.0803   -5.8067 C   0  0  1  0  0  0  0  0  0  0  0  0
   19.0307   46.1487   -5.6577 O   0  0  0  0  0  0  0  0  0  0  0  0
   20.7845   45.0104   -6.8709 C   0  0  2  0  0  0  0  0  0  0  0  0
   20.0191   45.1500   -8.2101 C   0  0  0  0  0  0  0  0  0  0  0  0
   20.4649   44.1913   -9.3402 C   0  0  2  0  0  0  0  0  0  0  0  0
   21.9511   44.3922   -9.7098 C   0  0  0  0  0  0  0  0  0  0  0  0
   19.5493   44.3699  -10.5724 C   0  0  0  0  0  0  0  0  0  0  0  0
   19.6744   43.2704  -11.6401 C   0  0  0  0  0  0  0  0  0  0  0  0
   18.9315   41.9753  -11.2846 C   0  0  0  0  0  0  0  0  0  0  0  0
   19.2918   40.7847  -12.1964 C   0  0  0  0  0  0  0  0  0  0  0  0
   20.7002   40.1851  -11.9918 C   0  0  0  0  0  0  0  0  0  0  0  0
   21.0760   39.8611  -10.5335 C   0  0  0  0  0  0  0  0  0  0  0  0
   20.0862   38.9173   -9.8170 C   0  0  0  0  0  0  0  0  0  0  0  0
   20.4230   38.6873   -8.3290 C   0  0  0  0  0  0  0  0  0  0  0  0
   20.3064   39.9649   -7.4622 C   0  0  0  0  0  0  0  0  0  0  0  0
   19.3182   40.6802   -7.6292 O   0  0  0  0  0  0  0  0  0  0  0  0
   21.2647   40.2586   -6.5414 N   0  0  0  0  0  0  0  0  0  0  0  0
   22.5501   39.5710   -6.5654 C   0  0  0  0  0  0  0  0  0  0  0  0
   21.0868   41.3907   -5.5928 C   0  0  1  0  0  0  0  0  0  0  0  0
   21.8239   41.1986   -4.2416 C   0  0  0  0  0  0  0  0  0  0  0  0
   21.5430   42.7130   -6.2192 C   0  0  0  0  0  0  0  0  0  0  0  0
   22.7058   42.8560   -6.5980 O   0  0  0  0  0  0  0  0  0  0  0  0
   20.6092   43.6766   -6.3009 N   0  0  0  0  0  0  0  0  0  0  0  0
   20.8453   45.7824   -4.8400 H   0  0  0  0  0  0  0  0  0  0  0  0
   21.8389   45.1548   -7.0958 H   0  0  0  0  0  0  0  0  0  0  0  0
   20.3439   43.1713   -8.9767 H   0  0  0  0  0  0  0  0  0  0  0  0
   20.0449   41.4703   -5.3327 H   0  0  0  0  0  0  0  0  0  0  0  0
   26.0156   49.0539   -0.0100 H   0  0  0  0  0  0  0  0  0  0  0  0
   27.4101   49.1493    1.0475 H   0  0  0  0  0  0  0  0  0  0  0  0
   27.1887   47.7499    0.0104 H   0  0  0  0  0  0  0  0  0  0  0  0
   27.7627   50.5674   -0.9339 H   0  0  0  0  0  0  0  0  0  0  0  0
   29.9980   49.7446   -1.5998 H   0  0  0  0  0  0  0  0  0  0  0  0
   29.6131   48.1534   -0.9578 H   0  0  0  0  0  0  0  0  0  0  0  0
   29.7428   49.5337    0.1259 H   0  0  0  0  0  0  0  0  0  0  0  0
   27.6880   48.0473   -2.6301 H   0  0  0  0  0  0  0  0  0  0  0  0
   28.0493   49.6524   -3.2058 H   0  0  0  0  0  0  0  0  0  0  0  0
   25.9216   47.6951   -4.2146 H   0  0  0  0  0  0  0  0  0  0  0  0
   22.2898   49.9790   -3.5948 H   0  0  0  0  0  0  0  0  0  0  0  0
   25.6604   51.0693   -1.5500 H   0  0  0  0  0  0  0  0  0  0  0  0
   23.0566   45.5832   -5.3624 H   0  0  0  0  0  0  0  0  0  0  0  0
   23.0963   46.1009   -3.6861 H   0  0  0  0  0  0  0  0  0  0  0  0
   24.5504   46.0277   -4.6468 H   0  0  0  0  0  0  0  0  0  0  0  0
   23.5694   47.2871   -7.2389 H   0  0  0  0  0  0  0  0  0  0  0  0
   25.0321   47.7890   -6.4455 H   0  0  0  0  0  0  0  0  0  0  0  0
   23.8183   48.9869   -6.8545 H   0  0  0  0  0  0  0  0  0  0  0  0
   21.7693   49.1181   -5.2904 H   0  0  0  0  0  0  0  0  0  0  0  0
   21.4176   47.4852   -7.1802 H   0  0  0  0  0  0  0  0  0  0  0  0
   20.0939   48.1462   -6.3121 H   0  0  0  0  0  0  0  0  0  0  0  0
   18.6527   46.2645   -6.5162 H   0  0  0  0  0  0  0  0  0  0  0  0
   18.9565   44.9898   -8.0232 H   0  0  0  0  0  0  0  0  0  0  0  0
   20.1038   46.1758   -8.5717 H   0  0  0  0  0  0  0  0  0  0  0  0
   22.2721   43.7269  -10.5068 H   0  0  0  0  0  0  0  0  0  0  0  0
   22.6123   44.1766   -8.8774 H   0  0  0  0  0  0  0  0  0  0  0  0
   22.1475   45.4161  -10.0298 H   0  0  0  0  0  0  0  0  0  0  0  0
   18.5070   44.4209  -10.2574 H   0  0  0  0  0  0  0  0  0  0  0  0
   19.7609   45.3364  -11.0295 H   0  0  0  0  0  0  0  0  0  0  0  0
   20.7194   43.0583  -11.8484 H   0  0  0  0  0  0  0  0  0  0  0  0
   19.2589   43.6477  -12.5748 H   0  0  0  0  0  0  0  0  0  0  0  0
   19.0959   41.7106  -10.2415 H   0  0  0  0  0  0  0  0  0  0  0  0
   17.8596   42.1617  -11.3603 H   0  0  0  0  0  0  0  0  0  0  0  0
   19.1864   41.0821  -13.2403 H   0  0  0  0  0  0  0  0  0  0  0  0
   18.5512   39.9981  -12.0374 H   0  0  0  0  0  0  0  0  0  0  0  0
   20.7832   39.2776  -12.5906 H   0  0  0  0  0  0  0  0  0  0  0  0
   21.4465   40.8698  -12.3964 H   0  0  0  0  0  0  0  0  0  0  0  0
   21.1757   40.7970   -9.9801 H   0  0  0  0  0  0  0  0  0  0  0  0
   22.0693   39.4082  -10.5173 H   0  0  0  0  0  0  0  0  0  0  0  0
   19.0717   39.3038   -9.8845 H   0  0  0  0  0  0  0  0  0  0  0  0
   20.0687   37.9576  -10.3342 H   0  0  0  0  0  0  0  0  0  0  0  0
   21.3898   38.1939   -8.2725 H   0  0  0  0  0  0  0  0  0  0  0  0
   19.7161   37.9631   -7.9202 H   0  0  0  0  0  0  0  0  0  0  0  0
   23.2616   40.0490   -5.9117 H   0  0  0  0  0  0  0  0  0  0  0  0
   22.9951   39.5909   -7.5664 H   0  0  0  0  0  0  0  0  0  0  0  0
   22.4490   38.5352   -6.2357 H   0  0  0  0  0  0  0  0  0  0  0  0
   21.4413   41.9046   -3.5045 H   0  0  0  0  0  0  0  0  0  0  0  0
   22.8978   41.3773   -4.2986 H   0  0  0  0  0  0  0  0  0  0  0  0
   21.6621   40.1980   -3.8405 H   0  0  0  0  0  0  0  0  0  0  0  0
   19.6829   43.4448   -5.9681 H   0  0  0  0  0  0  0  0  0  0  0  0
  1  2  1  0  0  0  0
  1 43  1  0  0  0  0
  1 44  1  0  0  0  0
  1 45  1  0  0  0  0
  2  3  1  0  0  0  0
  2  4  1  0  0  0  0
  2 46  1  0  0  0  0
  3 47  1  0  0  0  0
  3 48  1  0  0  0  0
  3 49  1  0  0  0  0
  4  5  1  0  0  0  0
  4 50  1  0  0  0  0
  4 51  1  0  0  0  0
  5 10  1  0  0  0  0
  5  6  2  0  0  0  0
  6  7  1  0  0  0  0
  6 52  1  0  0  0  0
  7  8  2  0  0  0  0
  7 11  1  0  0  0  0
  8  9  1  0  0  0  0
  8 53  1  0  0  0  0
  9 10  2  0  0  0  0
 10 54  1  0  0  0  0
 11 12  1  0  0  0  0
 11 13  1  0  0  0  0
 11 14  1  0  0  0  0
 12 55  1  0  0  0  0
 12 56  1  0  0  0  0
 12 57  1  0  0  0  0
 13 58  1  0  0  0  0
 13 59  1  0  0  0  0
 13 60  1  0  0  0  0
 14 15  1  0  0  0  0
 14 61  1  0  0  0  0
 15 16  1  0  0  0  0
 15 62  1  0  0  0  0
 15 63  1  0  0  0  0
 16 39  1  1  0  0  0
 16 17  1  0  0  0  0
 16 18  1  0  0  0  0
 17 64  1  0  0  0  0
 18 40  1  6  0  0  0
 18 38  1  0  0  0  0
 18 19  1  0  0  0  0
 19 20  1  0  0  0  0
 19 65  1  0  0  0  0
 19 66  1  0  0  0  0
 20 41  1  1  0  0  0
 20 21  1  0  0  0  0
 20 22  1  0  0  0  0
 21 67  1  0  0  0  0
 21 68  1  0  0  0  0
 21 69  1  0  0  0  0
 22 23  1  0  0  0  0
 22 70  1  0  0  0  0
 22 71  1  0  0  0  0
 23 24  1  0  0  0  0
 23 72  1  0  0  0  0
 23 73  1  0  0  0  0
 24 25  1  0  0  0  0
 24 74  1  0  0  0  0
 24 75  1  0  0  0  0
 25 26  1  0  0  0  0
 25 76  1  0  0  0  0
 25 77  1  0  0  0  0
 26 27  1  0  0  0  0
 26 78  1  0  0  0  0
 26 79  1  0  0  0  0
 27 28  1  0  0  0  0
 27 80  1  0  0  0  0
 27 81  1  0  0  0  0
 28 29  1  0  0  0  0
 28 82  1  0  0  0  0
 28 83  1  0  0  0  0
 29 30  1  0  0  0  0
 29 84  1  0  0  0  0
 29 85  1  0  0  0  0
 30 31  2  0  0  0  0
 30 32  1  0  0  0  0
 32 33  1  0  0  0  0
 32 34  1  0  0  0  0
 33 86  1  0  0  0  0
 33 87  1  0  0  0  0
 33 88  1  0  0  0  0
 34 42  1  1  0  0  0
 34 35  1  0  0  0  0
 34 36  1  0  0  0  0
 35 89  1  0  0  0  0
 35 90  1  0  0  0  0
 35 91  1  0  0  0  0
 36 37  2  0  0  0  0
 36 38  1  0  0  0  0
 38 92  1  0  0  0  0
M  END
>  <s_m_source_file>
BACE_26.smi

>  <i_m_source_file_index>
1

>  <i_lp_mmshare_version>
42013

>  <i_f3d_flags>
0

>  <s_epik_input>
W0NIM11bQ0hdKFtDSDNdKVtDSDJdYzFbY0hdYyhbY0hdbltjSF0xKUMoW0NIM10pKFtDSDNdKVtOSF1bQ0gyXVtDQEBIXShbT0hdKVtDQEBIXTJbQ0gyXVtDQEhdKFtDSDNdKVtDSDJdW0NIMl1bQ0gyXVtDSDJdW0NIMl1bQ0gyXVtDSDJdW0NIMl1DKD1PKU4oW0NIM10pW0NAQEhdKFtDSDNdKUMoPU8pW05IXTI=

>  <s_epik_cmdline>
J2VwaWtfcHl0aG9uJywgJy1waCcsICc3LjAnLCAnLXRuJywgJzgnLCAnLW1hJywgJzIwMCcsICctaW1hZScsICc8aW5maWxlLm1hZT4nLCAnLW9tYWUnLCAnPG91dGZpbGUubWFlPic=

>  <r_epik_Ionization_Penalty>
1.6485

>  <r_epik_Ionization_Penalty_Charging>
0.0000

>  <r_epik_Ionization_Penalty_Neutral>
1.6485

>  <r_epik_State_Penalty>
1.7165

>  <r_epik_Charging_Adjusted_Penalty>
1.71653

>  <i_epik_Tot_Q>
0

>  <i_epik_Tot_abs_Q>
0

>  <s_lp_Force_Field>
OPLS_2005

>  <r_lp_Energy>
44.9368

>  <b_lp_Chiralities_Consistent>
1

>  <s_lp_Variant>
BACE_26.smi:1-2

>  <chiral flag>
1

>  <version>
0

>  <s_i_glide_gridfile>
second_dock_grid_2

>  <i_i_glide_lignum>
44

>  <i_i_glide_rotatable_bonds>
8

>  <r_i_docking_score>
-2.36306

>  <r_i_glide_ligand_efficiency>
-0.0621858

>  <r_i_glide_ligand_efficiency_sa>
-0.209067

>  <r_i_glide_ligand_efficiency_ln>
-0.509545

>  <r_glide_XP_GScore>
-4.07956

>  <r_i_glide_gscore>
-4.07956

>  <r_i_glide_evdw>
-40.3444

>  <r_i_glide_ecoul>
-4.16242

>  <r_i_glide_energy>
-44.5068

>  <r_i_glide_einternal>
6.36266

>  <r_i_glide_emodel>
-57.6121

>  <r_glide_XP_HBond>
-0.396545

>  <i_i_glide_confnum>
1

>  <i_i_glide_posenum>
3

>  <r_i_glide_eff_state_penalty>
1.7165

>  <i_glide_XP_PoseRank>
1

$$$$
