BACE_50.smi:1
 OpenBabel09291822493D
Structure written by MMmdl.
 94 97  0  0  1  0  0  0  0  0999 V2000
   20.5351   38.5314   -7.4330 C   0  0  0  0  0  0  0  0  0  0  0  0
   19.8564   38.3298   -8.7972 C   0  0  0  0  0  0  0  0  0  0  0  0
   20.3525   39.3514   -9.8327 C   0  0  0  0  0  0  0  0  0  0  0  0
   18.3373   38.3441   -8.6806 C   0  0  0  0  0  0  0  0  0  0  0  0
   17.6999   39.3052   -7.8663 C   0  0  0  0  0  0  0  0  0  0  0  0
   16.2946   39.3186   -7.7410 C   0  0  0  0  0  0  0  0  0  0  0  0
   15.6235   40.3449   -6.8507 C   0  0  0  0  0  0  0  0  0  0  0  0
   15.9119   41.7074   -7.3346 N   0  3  0  0  0  0  0  0  0  0  0  0
   17.3177   41.9305   -7.7282 C   0  0  0  0  0  0  0  0  0  0  0  0
   17.4254   43.0773   -8.7508 C   0  0  1  0  0  0  0  0  0  0  0  0
   16.6490   42.7129   -9.8672 O   0  0  0  0  0  0  0  0  0  0  0  0
   17.0192   44.4700   -8.1774 C   0  0  2  0  0  0  0  0  0  0  0  0
   15.9323   45.2786   -8.9468 C   0  0  0  0  0  0  0  0  0  0  0  0
   16.2307   46.0571  -10.2640 C   0  0  2  0  0  0  0  0  0  0  0  0
   16.3804   45.1968  -11.5333 C   0  0  0  0  0  0  0  0  0  0  0  0
   17.1794   47.2878  -10.1512 C   0  0  0  0  0  0  0  0  0  0  0  0
   18.4485   47.3244  -11.0347 C   0  0  0  0  0  0  0  0  0  0  0  0
   19.5920   46.4288  -10.5412 C   0  0  0  0  0  0  0  0  0  0  0  0
   20.8530   46.4936  -11.4211 C   0  0  0  0  0  0  0  0  0  0  0  0
   22.0265   45.6670  -10.8618 C   0  0  0  0  0  0  0  0  0  0  0  0
   21.9353   44.1462  -11.1458 C   0  0  0  0  0  0  0  0  0  0  0  0
   22.7474   43.3267  -10.2223 N   0  0  0  0  0  0  0  0  0  0  0  0
   22.0482   42.3096   -9.5464 N   0  0  0  0  0  0  0  0  0  0  0  0
   21.3937   42.5693   -8.3348 C   0  0  0  0  0  0  0  0  0  0  0  0
   20.6194   43.7314   -8.1538 C   0  0  0  0  0  0  0  0  0  0  0  0
   19.9064   43.9093   -6.9551 C   0  0  0  0  0  0  0  0  0  0  0  0
   20.0534   42.9467   -5.9367 C   0  0  0  0  0  0  0  0  0  0  0  0
   20.8644   41.8212   -6.2000 C   0  0  0  0  0  0  0  0  0  0  0  0
   21.0572   40.7426   -5.1552 C   0  0  0  0  0  0  0  0  0  0  0  0
   21.5033   41.6239   -7.3766 N   0  0  0  0  0  0  0  0  0  0  0  0
   19.0484   45.1221   -6.7793 C   0  0  0  0  0  0  0  0  0  0  0  0
   19.3121   45.9304   -5.8926 O   0  0  0  0  0  0  0  0  0  0  0  0
   18.0868   45.3606   -7.6940 N   0  0  0  0  0  0  0  0  0  0  0  0
   24.0879   43.4015  -10.0188 C   0  0  0  0  0  0  0  0  0  0  0  0
   24.6610   42.8099   -9.1017 O   0  0  0  0  0  0  0  0  0  0  0  0
   24.9160   44.2398  -10.9496 C   0  0  0  0  0  0  0  0  0  0  0  0
   24.7355   44.1668  -12.3495 C   0  0  0  0  0  0  0  0  0  0  0  0
   25.5356   44.9426  -13.2104 C   0  0  0  0  0  0  0  0  0  0  0  0
   26.5320   45.7839  -12.6795 C   0  0  0  0  0  0  0  0  0  0  0  0
   27.3001   46.5307  -13.5076 F   0  0  0  0  0  0  0  0  0  0  0  0
   26.7332   45.8431  -11.2874 C   0  0  0  0  0  0  0  0  0  0  0  0
   25.9330   45.0675  -10.4258 C   0  0  0  0  0  0  0  0  0  0  0  0
   15.5211   38.3678   -8.4381 C   0  0  0  0  0  0  0  0  0  0  0  0
   16.1503   37.4110   -9.2567 C   0  0  0  0  0  0  0  0  0  0  0  0
   17.5530   37.3979   -9.3763 C   0  0  0  0  0  0  0  0  0  0  0  0
   18.4675   43.1093   -9.0607 H   0  0  0  0  0  0  0  0  0  0  0  0
   16.5124   44.2043   -7.2476 H   0  0  0  0  0  0  0  0  0  0  0  0
   15.2607   46.5260  -10.4397 H   0  0  0  0  0  0  0  0  0  0  0  0
   20.2119   37.7733   -6.7190 H   0  0  0  0  0  0  0  0  0  0  0  0
   20.3058   39.5091   -7.0083 H   0  0  0  0  0  0  0  0  0  0  0  0
   21.6191   38.4582   -7.5213 H   0  0  0  0  0  0  0  0  0  0  0  0
   20.1513   37.3427   -9.1563 H   0  0  0  0  0  0  0  0  0  0  0  0
   19.9070   39.1667  -10.8106 H   0  0  0  0  0  0  0  0  0  0  0  0
   21.4351   39.2960   -9.9492 H   0  0  0  0  0  0  0  0  0  0  0  0
   20.1050   40.3725   -9.5411 H   0  0  0  0  0  0  0  0  0  0  0  0
   18.2900   40.0330   -7.3279 H   0  0  0  0  0  0  0  0  0  0  0  0
   14.5461   40.1731   -6.8459 H   0  0  0  0  0  0  0  0  0  0  0  0
   15.9735   40.2355   -5.8232 H   0  0  0  0  0  0  0  0  0  0  0  0
   15.3168   41.9056   -8.1263 H   0  0  0  0  0  0  0  0  0  0  0  0
   17.9137   42.1467   -6.8408 H   0  0  0  0  0  0  0  0  0  0  0  0
   17.7023   41.0044   -8.1571 H   0  0  0  0  0  0  0  0  0  0  0  0
   16.8218   41.8048  -10.0670 H   0  0  0  0  0  0  0  0  0  0  0  0
   15.0773   44.6278   -9.1281 H   0  0  0  0  0  0  0  0  0  0  0  0
   15.5448   46.0162   -8.2419 H   0  0  0  0  0  0  0  0  0  0  0  0
   17.3783   44.7870  -11.6593 H   0  0  0  0  0  0  0  0  0  0  0  0
   16.1737   45.7922  -12.4230 H   0  0  0  0  0  0  0  0  0  0  0  0
   15.6736   44.3675  -11.5348 H   0  0  0  0  0  0  0  0  0  0  0  0
   16.5947   48.1651  -10.4329 H   0  0  0  0  0  0  0  0  0  0  0  0
   17.4463   47.4785   -9.1127 H   0  0  0  0  0  0  0  0  0  0  0  0
   18.2041   47.0937  -12.0713 H   0  0  0  0  0  0  0  0  0  0  0  0
   18.8148   48.3516  -11.0500 H   0  0  0  0  0  0  0  0  0  0  0  0
   19.8507   46.7171   -9.5219 H   0  0  0  0  0  0  0  0  0  0  0  0
   19.2436   45.4037  -10.4969 H   0  0  0  0  0  0  0  0  0  0  0  0
   20.6246   46.1783  -12.4400 H   0  0  0  0  0  0  0  0  0  0  0  0
   21.1691   47.5352  -11.4902 H   0  0  0  0  0  0  0  0  0  0  0  0
   22.9427   46.0543  -11.3058 H   0  0  0  0  0  0  0  0  0  0  0  0
   22.1214   45.8550   -9.7918 H   0  0  0  0  0  0  0  0  0  0  0  0
   20.8936   43.8299  -11.0825 H   0  0  0  0  0  0  0  0  0  0  0  0
   22.2149   43.9406  -12.1782 H   0  0  0  0  0  0  0  0  0  0  0  0
   22.5056   41.4093   -9.5780 H   0  0  0  0  0  0  0  0  0  0  0  0
   20.5349   44.4694   -8.9283 H   0  0  0  0  0  0  0  0  0  0  0  0
   19.5480   43.0605   -4.9884 H   0  0  0  0  0  0  0  0  0  0  0  0
   20.5614   41.0038   -4.2200 H   0  0  0  0  0  0  0  0  0  0  0  0
   22.1186   40.6015   -4.9483 H   0  0  0  0  0  0  0  0  0  0  0  0
   20.6463   39.7959   -5.5065 H   0  0  0  0  0  0  0  0  0  0  0  0
   17.7916   46.3266   -7.7017 H   0  0  0  0  0  0  0  0  0  0  0  0
   23.9868   43.5122  -12.7714 H   0  0  0  0  0  0  0  0  0  0  0  0
   25.3886   44.8881  -14.2789 H   0  0  0  0  0  0  0  0  0  0  0  0
   27.5028   46.4815  -10.8796 H   0  0  0  0  0  0  0  0  0  0  0  0
   26.0978   45.1178   -9.3590 H   0  0  0  0  0  0  0  0  0  0  0  0
   14.4446   38.3687   -8.3499 H   0  0  0  0  0  0  0  0  0  0  0  0
   15.5572   36.6845   -9.7924 H   0  0  0  0  0  0  0  0  0  0  0  0
   18.0244   36.6564  -10.0045 H   0  0  0  0  0  0  0  0  0  0  0  0
   15.6873   42.3574   -6.5945 H   0  0  0  0  0  0  0  0  0  0  0  0
  1  2  1  0  0  0  0
  1 49  1  0  0  0  0
  1 50  1  0  0  0  0
  1 51  1  0  0  0  0
  2  3  1  0  0  0  0
  2  4  1  0  0  0  0
  2 52  1  0  0  0  0
  3 53  1  0  0  0  0
  3 54  1  0  0  0  0
  3 55  1  0  0  0  0
  4 45  1  0  0  0  0
  4  5  2  0  0  0  0
  5  6  1  0  0  0  0
  5 56  1  0  0  0  0
  6  7  1  0  0  0  0
  6 43  2  0  0  0  0
  7  8  1  0  0  0  0
  7 57  1  0  0  0  0
  7 58  1  0  0  0  0
  8  9  1  0  0  0  0
  8 59  1  0  0  0  0
  8 94  1  0  0  0  0
  9 10  1  0  0  0  0
  9 60  1  0  0  0  0
  9 61  1  0  0  0  0
 10 46  1  6  0  0  0
 10 11  1  0  0  0  0
 10 12  1  0  0  0  0
 11 62  1  0  0  0  0
 12 47  1  1  0  0  0
 12 33  1  0  0  0  0
 12 13  1  0  0  0  0
 13 14  1  0  0  0  0
 13 63  1  0  0  0  0
 13 64  1  0  0  0  0
 14 48  1  6  0  0  0
 14 15  1  0  0  0  0
 14 16  1  0  0  0  0
 15 65  1  0  0  0  0
 15 66  1  0  0  0  0
 15 67  1  0  0  0  0
 16 17  1  0  0  0  0
 16 68  1  0  0  0  0
 16 69  1  0  0  0  0
 17 18  1  0  0  0  0
 17 70  1  0  0  0  0
 17 71  1  0  0  0  0
 18 19  1  0  0  0  0
 18 72  1  0  0  0  0
 18 73  1  0  0  0  0
 19 20  1  0  0  0  0
 19 74  1  0  0  0  0
 19 75  1  0  0  0  0
 20 21  1  0  0  0  0
 20 76  1  0  0  0  0
 20 77  1  0  0  0  0
 21 22  1  0  0  0  0
 21 78  1  0  0  0  0
 21 79  1  0  0  0  0
 22 23  1  0  0  0  0
 22 34  1  0  0  0  0
 23 24  1  0  0  0  0
 23 80  1  0  0  0  0
 24 30  1  0  0  0  0
 24 25  2  0  0  0  0
 25 26  1  0  0  0  0
 25 81  1  0  0  0  0
 26 27  2  0  0  0  0
 26 31  1  0  0  0  0
 27 28  1  0  0  0  0
 27 82  1  0  0  0  0
 28 29  1  0  0  0  0
 28 30  2  0  0  0  0
 29 83  1  0  0  0  0
 29 84  1  0  0  0  0
 29 85  1  0  0  0  0
 31 32  2  0  0  0  0
 31 33  1  0  0  0  0
 33 86  1  0  0  0  0
 34 35  2  0  0  0  0
 34 36  1  0  0  0  0
 36 42  1  0  0  0  0
 36 37  2  0  0  0  0
 37 38  1  0  0  0  0
 37 87  1  0  0  0  0
 38 39  2  0  0  0  0
 38 88  1  0  0  0  0
 39 40  1  0  0  0  0
 39 41  1  0  0  0  0
 41 42  2  0  0  0  0
 41 89  1  0  0  0  0
 42 90  1  0  0  0  0
 43 44  1  0  0  0  0
 43 91  1  0  0  0  0
 44 45  2  0  0  0  0
 44 92  1  0  0  0  0
 45 93  1  0  0  0  0
M  CHG  1   8   1
M  END
>  <s_m_source_file>
BACE_50.smi

>  <i_m_source_file_index>
1

>  <i_lp_mmshare_version>
42013

>  <i_f3d_flags>
0

>  <s_epik_input>
W0NIM11bQ0hdKFtDSDNdKWMxW2NIXWMoW2NIXVtjSF1bY0hdMSlbQ0gyXVtOSF1bQ0gyXVtDQEBIXShbT0hdKVtDQEBIXShbTkhdQyg9TyljKFtjSF1jMjMpW2NIXWMobjMpW0NIM10pW0NIMl1bQ0BIXShbQ0gzXSlbQ0gyXVtDSDJdW0NIMl1bQ0gyXVtDSDJdW0NIMl1OKFtOSF0yKUMoPU8pYzRbY0hdW2NIXWMoRilbY0hdW2NIXTQ=

>  <s_epik_cmdline>
J2VwaWtfcHl0aG9uJywgJy1waCcsICc3LjAnLCAnLXRuJywgJzgnLCAnLW1hJywgJzIwMCcsICctaW1hZScsICc8aW5maWxlLm1hZT4nLCAnLW9tYWUnLCAnPG91dGZpbGUubWFlPic=

>  <r_epik_Ionization_Penalty>
0.0173

>  <r_epik_Ionization_Penalty_Charging>
0.0173

>  <r_epik_Ionization_Penalty_Neutral>
0.0000

>  <r_epik_State_Penalty>
0.0137

>  <r_epik_Charging_Adjusted_Penalty>
0.0310503

>  <i_epik_Tot_Q>
1

>  <i_epik_Tot_abs_Q>
1

>  <s_lp_Force_Field>
OPLS_2005

>  <r_lp_Energy>
66.1663

>  <b_lp_Chiralities_Consistent>
1

>  <s_lp_Variant>
BACE_50.smi:1-1

>  <chiral flag>
1

>  <version>
0

>  <s_i_glide_gridfile>
second_dock_grid_2

>  <i_i_glide_lignum>
95

>  <i_i_glide_rotatable_bonds>
9

>  <r_i_docking_score>
-4.39084

>  <r_i_glide_ligand_efficiency>
-0.0975742

>  <r_i_glide_ligand_efficiency_sa>
-0.347061

>  <r_i_glide_ligand_efficiency_ln>
-0.91349

>  <r_glide_XP_GScore>
-4.40454

>  <r_i_glide_gscore>
-4.40454

>  <r_i_glide_evdw>
-40.764

>  <r_i_glide_ecoul>
-13.3825

>  <r_i_glide_energy>
-54.1464

>  <r_i_glide_einternal>
9.96984

>  <r_i_glide_emodel>
-74.1611

>  <r_glide_XP_HBond>
0

>  <i_i_glide_confnum>
1

>  <i_i_glide_posenum>
8

>  <r_i_glide_eff_state_penalty>
0.0137

>  <i_glide_XP_PoseRank>
1

$$$$
