BACE_111.smi:1
 OpenBabel09291822493D
Structure written by MMmdl.
 88 92  0  0  1  0  0  0  0  0999 V2000
   30.5063   41.7497  -14.0630 C   0  0  0  0  0  0  0  0  0  0  0  0
   29.9722   42.2097  -12.6966 C   0  0  0  0  0  0  0  0  0  0  0  0
   31.0918   42.7731  -11.8054 C   0  0  0  0  0  0  0  0  0  0  0  0
   28.8370   43.2144  -12.8551 C   0  0  0  0  0  0  0  0  0  0  0  0
   27.5689   42.9520  -12.2939 C   0  0  0  0  0  0  0  0  0  0  0  0
   26.5053   43.8654  -12.4649 C   0  0  0  0  0  0  0  0  0  0  0  0
   26.7116   45.0537  -13.2128 C   0  0  0  0  0  0  0  0  0  0  0  0
   27.9809   45.3141  -13.7643 C   0  0  0  0  0  0  0  0  0  0  0  0
   29.0397   44.4078  -13.5775 C   0  0  0  0  0  0  0  0  0  0  0  0
   25.7120   45.9655  -13.4703 O   0  0  0  0  0  0  0  0  0  0  0  0
   24.5455   45.9388  -12.6485 C   0  0  0  0  0  0  0  0  0  0  0  0
   23.4765   46.7300  -13.4187 C   0  0  0  0  0  0  0  0  0  0  0  0
   24.8582   46.6590  -11.3196 C   0  0  0  0  0  0  0  0  0  0  0  0
   24.0667   44.4853  -12.4486 C   0  0  0  0  0  0  0  0  0  0  0  0
   25.1433   43.5481  -11.8707 C   0  0  2  0  0  0  0  0  0  0  0  0
   25.2103   43.5417  -10.4015 N   0  0  0  0  0  0  0  0  0  0  0  0
   24.0038   43.1454   -9.6700 C   0  0  0  0  0  0  0  0  0  0  0  0
   23.6341   41.6582   -9.8640 C   0  0  1  0  0  0  0  0  0  0  0  0
   24.6894   40.9502   -9.2494 O   0  0  0  0  0  0  0  0  0  0  0  0
   22.2719   41.2578   -9.2166 C   0  0  2  0  0  0  0  0  0  0  0  0
   22.0664   39.7187   -9.1205 C   0  0  0  0  0  0  0  0  0  0  0  0
   20.7169   39.2744   -8.5480 C   0  0  0  0  0  0  0  0  0  0  0  0
   19.7310   38.6857   -9.3750 C   0  0  0  0  0  0  0  0  0  0  0  0
   18.4951   38.2456   -8.8433 C   0  0  0  0  0  0  0  0  0  0  0  0
   18.2564   38.3955   -7.4567 C   0  0  0  0  0  0  0  0  0  0  0  0
   19.2347   38.9779   -6.6289 C   0  0  0  0  0  0  0  0  0  0  0  0
   20.4603   39.4130   -7.1703 C   0  0  0  0  0  0  0  0  0  0  0  0
   17.5931   37.6957   -9.7324 O   0  0  0  0  0  0  0  0  0  0  0  0
   16.2916   37.2886   -9.3034 C   0  0  0  0  0  0  0  0  0  0  0  0
   15.2800   38.4313   -9.0454 C   0  0  0  0  0  0  0  0  0  0  0  0
   15.0699   39.4408  -10.1933 C   0  0  0  0  0  0  0  0  0  0  0  0
   16.2736   40.3616  -10.3476 C   0  0  0  0  0  0  0  0  0  0  0  0
   16.0742   41.4496  -11.2408 O   0  0  0  0  0  0  0  0  0  0  0  0
   17.1220   42.3491  -11.2958 C   0  0  0  0  0  0  0  0  0  0  0  0
   18.3438   42.1665  -10.6034 C   0  0  0  0  0  0  0  0  0  0  0  0
   19.3143   43.1769  -10.6290 C   0  0  0  0  0  0  0  0  0  0  0  0
   19.0418   44.3435  -11.3664 C   0  0  0  0  0  0  0  0  0  0  0  0
   17.8137   44.4272  -12.0542 C   0  0  0  0  0  0  0  0  0  0  0  0
   17.4796   45.6760  -12.8371 C   0  0  0  0  0  0  0  0  0  0  0  0
   16.8742   43.4524  -12.0393 N   0  0  0  0  0  0  0  0  0  0  0  0
   20.5650   43.0122   -9.8229 C   0  0  0  0  0  0  0  0  0  0  0  0
   20.9716   43.9077   -9.0862 O   0  0  0  0  0  0  0  0  0  0  0  0
   21.1529   41.8131   -9.9744 N   0  0  0  0  0  0  0  0  0  0  0  0
   24.8851   42.5490  -12.2089 H   0  0  0  0  0  0  0  0  0  0  0  0
   23.6282   41.3940  -10.9206 H   0  0  0  0  0  0  0  0  0  0  0  0
   22.2401   41.6576   -8.2012 H   0  0  0  0  0  0  0  0  0  0  0  0
   29.6978   41.3500  -14.6794 H   0  0  0  0  0  0  0  0  0  0  0  0
   31.2532   40.9647  -13.9560 H   0  0  0  0  0  0  0  0  0  0  0  0
   30.9679   42.5658  -14.6177 H   0  0  0  0  0  0  0  0  0  0  0  0
   29.5673   41.3255  -12.1947 H   0  0  0  0  0  0  0  0  0  0  0  0
   30.7085   43.0420  -10.8210 H   0  0  0  0  0  0  0  0  0  0  0  0
   31.5400   43.6662  -12.2413 H   0  0  0  0  0  0  0  0  0  0  0  0
   31.8875   42.0423  -11.6650 H   0  0  0  0  0  0  0  0  0  0  0  0
   27.4004   42.0387  -11.7419 H   0  0  0  0  0  0  0  0  0  0  0  0
   28.1418   46.2163  -14.3344 H   0  0  0  0  0  0  0  0  0  0  0  0
   30.0040   44.6274  -14.0071 H   0  0  0  0  0  0  0  0  0  0  0  0
   22.5358   46.7668  -12.8674 H   0  0  0  0  0  0  0  0  0  0  0  0
   23.2691   46.2835  -14.3929 H   0  0  0  0  0  0  0  0  0  0  0  0
   23.7955   47.7564  -13.5972 H   0  0  0  0  0  0  0  0  0  0  0  0
   23.9958   46.6553  -10.6578 H   0  0  0  0  0  0  0  0  0  0  0  0
   25.1397   47.6963  -11.4939 H   0  0  0  0  0  0  0  0  0  0  0  0
   25.6826   46.1887  -10.7846 H   0  0  0  0  0  0  0  0  0  0  0  0
   23.8321   44.0915  -13.4382 H   0  0  0  0  0  0  0  0  0  0  0  0
   23.1196   44.4460  -11.9119 H   0  0  0  0  0  0  0  0  0  0  0  0
   25.9626   42.9188  -10.1134 H   0  0  0  0  0  0  0  0  0  0  0  0
   24.1508   43.3320   -8.6045 H   0  0  0  0  0  0  0  0  0  0  0  0
   23.1846   43.7932   -9.9567 H   0  0  0  0  0  0  0  0  0  0  0  0
   24.6437   40.0340   -9.5092 H   0  0  0  0  0  0  0  0  0  0  0  0
   22.8426   39.2750   -8.4948 H   0  0  0  0  0  0  0  0  0  0  0  0
   22.1979   39.2701  -10.1058 H   0  0  0  0  0  0  0  0  0  0  0  0
   19.9155   38.5681  -10.4330 H   0  0  0  0  0  0  0  0  0  0  0  0
   17.3324   38.0705   -7.0018 H   0  0  0  0  0  0  0  0  0  0  0  0
   19.0362   39.0938   -5.5712 H   0  0  0  0  0  0  0  0  0  0  0  0
   21.2012   39.8512   -6.5191 H   0  0  0  0  0  0  0  0  0  0  0  0
   15.8942   36.6562  -10.0947 H   0  0  0  0  0  0  0  0  0  0  0  0
   16.3626   36.6302   -8.4398 H   0  0  0  0  0  0  0  0  0  0  0  0
   15.5475   38.9671   -8.1353 H   0  0  0  0  0  0  0  0  0  0  0  0
   14.3135   37.9789   -8.8219 H   0  0  0  0  0  0  0  0  0  0  0  0
   14.1925   40.0453   -9.9658 H   0  0  0  0  0  0  0  0  0  0  0  0
   14.8617   38.9506  -11.1408 H   0  0  0  0  0  0  0  0  0  0  0  0
   16.5276   40.7408   -9.3576 H   0  0  0  0  0  0  0  0  0  0  0  0
   17.1091   39.7816  -10.7347 H   0  0  0  0  0  0  0  0  0  0  0  0
   18.5465   41.2909  -10.0050 H   0  0  0  0  0  0  0  0  0  0  0  0
   19.7507   45.1592  -11.3888 H   0  0  0  0  0  0  0  0  0  0  0  0
   17.5499   46.5524  -12.1926 H   0  0  0  0  0  0  0  0  0  0  0  0
   16.4675   45.6361  -13.2387 H   0  0  0  0  0  0  0  0  0  0  0  0
   18.1825   45.8020  -13.6636 H   0  0  0  0  0  0  0  0  0  0  0  0
   20.7089   41.1832  -10.6255 H   0  0  0  0  0  0  0  0  0  0  0  0
  1  2  1  0  0  0  0
  1 47  1  0  0  0  0
  1 48  1  0  0  0  0
  1 49  1  0  0  0  0
  2  3  1  0  0  0  0
  2  4  1  0  0  0  0
  2 50  1  0  0  0  0
  3 51  1  0  0  0  0
  3 52  1  0  0  0  0
  3 53  1  0  0  0  0
  4  9  1  0  0  0  0
  4  5  2  0  0  0  0
  5  6  1  0  0  0  0
  5 54  1  0  0  0  0
  6 15  1  0  0  0  0
  6  7  2  0  0  0  0
  7  8  1  0  0  0  0
  7 10  1  0  0  0  0
  8  9  2  0  0  0  0
  8 55  1  0  0  0  0
  9 56  1  0  0  0  0
 10 11  1  0  0  0  0
 11 12  1  0  0  0  0
 11 13  1  0  0  0  0
 11 14  1  0  0  0  0
 12 57  1  0  0  0  0
 12 58  1  0  0  0  0
 12 59  1  0  0  0  0
 13 60  1  0  0  0  0
 13 61  1  0  0  0  0
 13 62  1  0  0  0  0
 14 15  1  0  0  0  0
 14 63  1  0  0  0  0
 14 64  1  0  0  0  0
 15 44  1  6  0  0  0
 15 16  1  0  0  0  0
 16 17  1  0  0  0  0
 16 65  1  0  0  0  0
 17 18  1  0  0  0  0
 17 66  1  0  0  0  0
 17 67  1  0  0  0  0
 18 45  1  6  0  0  0
 18 19  1  0  0  0  0
 18 20  1  0  0  0  0
 19 68  1  0  0  0  0
 20 46  1  1  0  0  0
 20 43  1  0  0  0  0
 20 21  1  0  0  0  0
 21 22  1  0  0  0  0
 21 69  1  0  0  0  0
 21 70  1  0  0  0  0
 22 27  1  0  0  0  0
 22 23  2  0  0  0  0
 23 24  1  0  0  0  0
 23 71  1  0  0  0  0
 24 25  2  0  0  0  0
 24 28  1  0  0  0  0
 25 26  1  0  0  0  0
 25 72  1  0  0  0  0
 26 27  2  0  0  0  0
 26 73  1  0  0  0  0
 27 74  1  0  0  0  0
 28 29  1  0  0  0  0
 29 30  1  0  0  0  0
 29 75  1  0  0  0  0
 29 76  1  0  0  0  0
 30 31  1  0  0  0  0
 30 77  1  0  0  0  0
 30 78  1  0  0  0  0
 31 32  1  0  0  0  0
 31 79  1  0  0  0  0
 31 80  1  0  0  0  0
 32 33  1  0  0  0  0
 32 81  1  0  0  0  0
 32 82  1  0  0  0  0
 33 34  1  0  0  0  0
 34 40  1  0  0  0  0
 34 35  2  0  0  0  0
 35 36  1  0  0  0  0
 35 83  1  0  0  0  0
 36 37  2  0  0  0  0
 36 41  1  0  0  0  0
 37 38  1  0  0  0  0
 37 84  1  0  0  0  0
 38 39  1  0  0  0  0
 38 40  2  0  0  0  0
 39 85  1  0  0  0  0
 39 86  1  0  0  0  0
 39 87  1  0  0  0  0
 41 42  2  0  0  0  0
 41 43  1  0  0  0  0
 43 88  1  0  0  0  0
M  END
>  <s_m_source_file>
BACE_111.smi

>  <i_m_source_file_index>
1

>  <i_lp_mmshare_version>
42013

>  <i_f3d_flags>
0

>  <s_epik_input>
W0NIM11bQ0hdKFtDSDNdKWMoW2NIXTEpW2NIXVtjSF1jKGMxMilPQyhbQ0gzXSkoW0NIM10pW0NIMl1bQ0BASF0yW05IXVtDSDJdW0NAQEhdKFtPSF0pW0NASF0oW0NIMl0zKVtOSF1DKD1PKWMoW2NIXWMobjQpW0NIM10pW2NIXWM0T1tDSDJdW0NIMl1bQ0gyXVtDSDJdT2MoW2NIXWMzNSlbY0hdW2NIXVtjSF01

>  <s_epik_cmdline>
J2VwaWtfcHl0aG9uJywgJy1waCcsICc3LjAnLCAnLXRuJywgJzgnLCAnLW1hJywgJzIwMCcsICctaW1hZScsICc8aW5maWxlLm1hZT4nLCAnLW9tYWUnLCAnPG91dGZpbGUubWFlPic=

>  <r_lp_tautomer_probability>
1

>  <r_epik_Ionization_Penalty>
1.9980

>  <r_epik_Ionization_Penalty_Charging>
0.0000

>  <r_epik_Ionization_Penalty_Neutral>
1.9980

>  <r_epik_State_Penalty>
2.1266

>  <r_epik_Charging_Adjusted_Penalty>
2.12657

>  <i_epik_Tot_Q>
0

>  <i_epik_Tot_abs_Q>
0

>  <s_lp_Force_Field>
OPLS_2005

>  <r_lp_Energy>
33.5995

>  <b_lp_Chiralities_Consistent>
1

>  <s_lp_Variant>
BACE_111.smi:1-2

>  <chiral flag>
1

>  <version>
0

>  <s_i_glide_gridfile>
second_dock_grid_2

>  <i_i_glide_lignum>
227

>  <i_i_glide_rotatable_bonds>
6

>  <r_i_docking_score>
-0.750936

>  <r_i_glide_ligand_efficiency>
-0.0174636

>  <r_i_glide_ligand_efficiency_sa>
-0.061182

>  <r_i_glide_ligand_efficiency_ln>
-0.15772

>  <r_glide_XP_GScore>
-2.87754

>  <r_i_glide_gscore>
-2.87754

>  <r_i_glide_evdw>
-42.7299

>  <r_i_glide_ecoul>
-10.638

>  <r_i_glide_energy>
-53.3679

>  <r_i_glide_einternal>
2.53572

>  <r_i_glide_emodel>
-70.7728

>  <r_glide_XP_HBond>
-1.33

>  <i_i_glide_confnum>
1

>  <i_i_glide_posenum>
3

>  <r_i_glide_eff_state_penalty>
2.1266

>  <i_glide_XP_PoseRank>
1

$$$$
