BACE_69.smi:1
 OpenBabel09291822493D
Structure written by MMmdl.
 97 99  0  0  1  0  0  0  0  0999 V2000
   16.9015   36.3355   -9.2928 C   0  0  0  0  0  0  0  0  0  0  0  0
   17.3585   37.6047   -8.5613 C   0  0  0  0  0  0  0  0  0  0  0  0
   16.2808   38.6993   -8.5608 C   0  0  0  0  0  0  0  0  0  0  0  0
   18.6868   38.1071   -9.1042 C   0  0  0  0  0  0  0  0  0  0  0  0
   19.8053   38.1504   -8.2517 C   0  0  0  0  0  0  0  0  0  0  0  0
   21.0471   38.6193   -8.7198 C   0  0  0  0  0  0  0  0  0  0  0  0
   22.1852   38.7991   -7.7379 C   0  0  0  0  0  0  0  0  0  0  0  0
   22.3184   40.1456   -7.1559 N   0  0  0  0  0  0  0  0  0  0  0  0
   21.0784   40.7375   -6.6426 C   0  0  0  0  0  0  0  0  0  0  0  0
   20.3351   41.5379   -7.7412 C   0  0  1  0  0  0  0  0  0  0  0  0
   18.9495   41.3004   -7.6364 O   0  0  0  0  0  0  0  0  0  0  0  0
   20.6541   43.0542   -7.8032 C   0  0  2  0  0  0  0  0  0  0  0  0
   22.1414   43.2677   -8.1966 C   0  0  0  0  0  0  0  0  0  0  0  0
   22.6005   44.6759   -8.6524 C   0  0  2  0  0  0  0  0  0  0  0  0
   22.6558   45.7220   -7.5259 C   0  0  0  0  0  0  0  0  0  0  0  0
   21.8347   45.1740   -9.8926 C   0  0  0  0  0  0  0  0  0  0  0  0
   22.5223   46.3551  -10.6057 C   0  0  0  0  0  0  0  0  0  0  0  0
   21.9230   46.6765  -11.9861 C   0  0  0  0  0  0  0  0  0  0  0  0
   20.8444   47.7753  -12.0015 C   0  0  0  0  0  0  0  0  0  0  0  0
   19.5635   47.4207  -11.2313 C   0  0  0  0  0  0  0  0  0  0  0  0
   18.4531   48.4664  -11.4201 C   0  0  0  0  0  0  0  0  0  0  0  0
   17.1659   48.1543  -10.6408 C   0  0  0  0  0  0  0  0  0  0  0  0
   17.3658   48.0343   -9.1893 N   0  0  0  0  0  0  0  0  0  0  0  0
   17.3866   46.7172   -8.6887 C   0  0  0  0  0  0  0  0  0  0  0  0
   18.3936   46.3658   -7.7712 C   0  0  0  0  0  0  0  0  0  0  0  0
   18.4724   45.0630   -7.2558 C   0  0  0  0  0  0  0  0  0  0  0  0
   17.5004   44.1154   -7.6228 C   0  0  0  0  0  0  0  0  0  0  0  0
   16.4684   44.4195   -8.5426 C   0  0  0  0  0  0  0  0  0  0  0  0
   16.4332   45.7357   -9.0630 C   0  0  0  0  0  0  0  0  0  0  0  0
   15.5018   43.4703   -8.9636 N   0  0  0  0  0  0  0  0  0  0  0  0
   15.1805   42.3703   -8.0435 C   0  0  0  0  0  0  0  0  0  0  0  0
   14.6030   43.5404  -10.4682 S   0  0  0  0  0  0  0  0  0  0  0  0
   13.8007   41.8960  -10.6514 C   0  0  0  0  0  0  0  0  0  0  0  0
   13.5517   44.5496  -10.2714 O   0  0  0  0  0  0  0  0  0  0  0  0
   15.5966   43.6961  -11.5409 O   0  0  0  0  0  0  0  0  0  0  0  0
   19.5488   44.7269   -6.2665 C   0  0  0  0  0  0  0  0  0  0  0  0
   19.6607   45.4010   -5.2474 O   0  0  0  0  0  0  0  0  0  0  0  0
   20.3857   43.7074   -6.5215 N   0  0  0  0  0  0  0  0  0  0  0  0
   17.5837   49.4807   -8.2218 S   0  0  0  0  0  0  0  0  0  0  0  0
   19.3815   49.8592   -8.3223 C   0  0  0  0  0  0  0  0  0  0  0  0
   16.8312   50.5518   -8.8870 O   0  0  0  0  0  0  0  0  0  0  0  0
   17.2613   49.1041   -6.8398 O   0  0  0  0  0  0  0  0  0  0  0  0
   21.1953   38.9882  -10.0703 C   0  0  0  0  0  0  0  0  0  0  0  0
   20.0779   38.9513  -10.9287 C   0  0  0  0  0  0  0  0  0  0  0  0
   18.8233   38.5401  -10.4400 C   0  0  0  0  0  0  0  0  0  0  0  0
   20.5817   41.1521   -8.7250 H   0  0  0  0  0  0  0  0  0  0  0  0
   20.0397   43.4777   -8.5964 H   0  0  0  0  0  0  0  0  0  0  0  0
   23.6366   44.5310   -8.9659 H   0  0  0  0  0  0  0  0  0  0  0  0
   17.6965   35.5911   -9.3173 H   0  0  0  0  0  0  0  0  0  0  0  0
   16.6004   36.5520  -10.3192 H   0  0  0  0  0  0  0  0  0  0  0  0
   16.0559   35.8806   -8.7862 H   0  0  0  0  0  0  0  0  0  0  0  0
   17.5194   37.3326   -7.5172 H   0  0  0  0  0  0  0  0  0  0  0  0
   16.6065   39.5477   -7.9609 H   0  0  0  0  0  0  0  0  0  0  0  0
   15.3524   38.3298   -8.1226 H   0  0  0  0  0  0  0  0  0  0  0  0
   16.0628   39.0577   -9.5649 H   0  0  0  0  0  0  0  0  0  0  0  0
   19.6989   37.8703   -7.2127 H   0  0  0  0  0  0  0  0  0  0  0  0
   22.0600   38.0657   -6.9392 H   0  0  0  0  0  0  0  0  0  0  0  0
   23.1116   38.5502   -8.2564 H   0  0  0  0  0  0  0  0  0  0  0  0
   22.9749   40.0828   -6.3851 H   0  0  0  0  0  0  0  0  0  0  0  0
   20.4394   39.9566   -6.2288 H   0  0  0  0  0  0  0  0  0  0  0  0
   21.3064   41.3910   -5.8014 H   0  0  0  0  0  0  0  0  0  0  0  0
   18.6907   41.3500   -6.7234 H   0  0  0  0  0  0  0  0  0  0  0  0
   22.7838   42.9453   -7.3754 H   0  0  0  0  0  0  0  0  0  0  0  0
   22.3759   42.5831   -9.0129 H   0  0  0  0  0  0  0  0  0  0  0  0
   21.6725   46.1278   -7.3014 H   0  0  0  0  0  0  0  0  0  0  0  0
   23.2867   46.5649   -7.8056 H   0  0  0  0  0  0  0  0  0  0  0  0
   23.0688   45.3012   -6.6094 H   0  0  0  0  0  0  0  0  0  0  0  0
   21.7502   44.3474  -10.5995 H   0  0  0  0  0  0  0  0  0  0  0  0
   20.8160   45.4350   -9.6153 H   0  0  0  0  0  0  0  0  0  0  0  0
   22.5219   47.2462   -9.9776 H   0  0  0  0  0  0  0  0  0  0  0  0
   23.5708   46.0941  -10.7524 H   0  0  0  0  0  0  0  0  0  0  0  0
   22.7337   47.0102  -12.6350 H   0  0  0  0  0  0  0  0  0  0  0  0
   21.5412   45.7628  -12.4397 H   0  0  0  0  0  0  0  0  0  0  0  0
   21.2606   48.7021  -11.6085 H   0  0  0  0  0  0  0  0  0  0  0  0
   20.5852   47.9808  -13.0414 H   0  0  0  0  0  0  0  0  0  0  0  0
   19.2006   46.4424  -11.5462 H   0  0  0  0  0  0  0  0  0  0  0  0
   19.8032   47.3437  -10.1734 H   0  0  0  0  0  0  0  0  0  0  0  0
   18.8195   49.4555  -11.1592 H   0  0  0  0  0  0  0  0  0  0  0  0
   18.2062   48.5270  -12.4811 H   0  0  0  0  0  0  0  0  0  0  0  0
   16.4457   48.9487  -10.8269 H   0  0  0  0  0  0  0  0  0  0  0  0
   16.7224   47.2676  -11.0862 H   0  0  0  0  0  0  0  0  0  0  0  0
   19.1278   47.0879   -7.4549 H   0  0  0  0  0  0  0  0  0  0  0  0
   17.5706   43.1516   -7.1588 H   0  0  0  0  0  0  0  0  0  0  0  0
   15.6429   46.0088   -9.7425 H   0  0  0  0  0  0  0  0  0  0  0  0
   15.7967   42.2398   -7.1631 H   0  0  0  0  0  0  0  0  0  0  0  0
   15.2491   41.4159   -8.5579 H   0  0  0  0  0  0  0  0  0  0  0  0
   14.1570   42.4890   -7.6899 H   0  0  0  0  0  0  0  0  0  0  0  0
   13.1759   41.8954  -11.5401 H   0  0  0  0  0  0  0  0  0  0  0  0
   13.1683   41.6884   -9.7881 H   0  0  0  0  0  0  0  0  0  0  0  0
   14.5584   41.1174  -10.7332 H   0  0  0  0  0  0  0  0  0  0  0  0
   21.0449   43.5006   -5.7856 H   0  0  0  0  0  0  0  0  0  0  0  0
   19.6239   50.6128   -7.5734 H   0  0  0  0  0  0  0  0  0  0  0  0
   19.6280   50.2514   -9.3056 H   0  0  0  0  0  0  0  0  0  0  0  0
   19.9753   48.9683   -8.1337 H   0  0  0  0  0  0  0  0  0  0  0  0
   22.1482   39.3464  -10.4348 H   0  0  0  0  0  0  0  0  0  0  0  0
   20.1776   39.2641  -11.9594 H   0  0  0  0  0  0  0  0  0  0  0  0
   17.9723   38.5449  -11.1026 H   0  0  0  0  0  0  0  0  0  0  0  0
  1  2  1  0  0  0  0
  1 49  1  0  0  0  0
  1 50  1  0  0  0  0
  1 51  1  0  0  0  0
  2  3  1  0  0  0  0
  2  4  1  0  0  0  0
  2 52  1  0  0  0  0
  3 53  1  0  0  0  0
  3 54  1  0  0  0  0
  3 55  1  0  0  0  0
  4 45  1  0  0  0  0
  4  5  2  0  0  0  0
  5  6  1  0  0  0  0
  5 56  1  0  0  0  0
  6  7  1  0  0  0  0
  6 43  2  0  0  0  0
  7  8  1  0  0  0  0
  7 57  1  0  0  0  0
  7 58  1  0  0  0  0
  8  9  1  0  0  0  0
  8 59  1  0  0  0  0
  9 10  1  0  0  0  0
  9 60  1  0  0  0  0
  9 61  1  0  0  0  0
 10 46  1  6  0  0  0
 10 11  1  0  0  0  0
 10 12  1  0  0  0  0
 11 62  1  0  0  0  0
 12 47  1  6  0  0  0
 12 38  1  0  0  0  0
 12 13  1  0  0  0  0
 13 14  1  0  0  0  0
 13 63  1  0  0  0  0
 13 64  1  0  0  0  0
 14 48  1  6  0  0  0
 14 15  1  0  0  0  0
 14 16  1  0  0  0  0
 15 65  1  0  0  0  0
 15 66  1  0  0  0  0
 15 67  1  0  0  0  0
 16 17  1  0  0  0  0
 16 68  1  0  0  0  0
 16 69  1  0  0  0  0
 17 18  1  0  0  0  0
 17 70  1  0  0  0  0
 17 71  1  0  0  0  0
 18 19  1  0  0  0  0
 18 72  1  0  0  0  0
 18 73  1  0  0  0  0
 19 20  1  0  0  0  0
 19 74  1  0  0  0  0
 19 75  1  0  0  0  0
 20 21  1  0  0  0  0
 20 76  1  0  0  0  0
 20 77  1  0  0  0  0
 21 22  1  0  0  0  0
 21 78  1  0  0  0  0
 21 79  1  0  0  0  0
 22 23  1  0  0  0  0
 22 80  1  0  0  0  0
 22 81  1  0  0  0  0
 23 24  1  0  0  0  0
 23 39  1  0  0  0  0
 24 29  1  0  0  0  0
 24 25  2  0  0  0  0
 25 26  1  0  0  0  0
 25 82  1  0  0  0  0
 26 27  2  0  0  0  0
 26 36  1  0  0  0  0
 27 28  1  0  0  0  0
 27 83  1  0  0  0  0
 28 29  2  0  0  0  0
 28 30  1  0  0  0  0
 29 84  1  0  0  0  0
 30 31  1  0  0  0  0
 30 32  1  0  0  0  0
 31 85  1  0  0  0  0
 31 86  1  0  0  0  0
 31 87  1  0  0  0  0
 32 33  1  0  0  0  0
 32 34  2  0  0  0  0
 32 35  2  0  0  0  0
 33 88  1  0  0  0  0
 33 89  1  0  0  0  0
 33 90  1  0  0  0  0
 36 37  2  0  0  0  0
 36 38  1  0  0  0  0
 38 91  1  0  0  0  0
 39 40  1  0  0  0  0
 39 41  2  0  0  0  0
 39 42  2  0  0  0  0
 40 92  1  0  0  0  0
 40 93  1  0  0  0  0
 40 94  1  0  0  0  0
 43 44  1  0  0  0  0
 43 95  1  0  0  0  0
 44 45  2  0  0  0  0
 44 96  1  0  0  0  0
 45 97  1  0  0  0  0
M  END
>  <s_m_source_file>
BACE_69.smi

>  <i_m_source_file_index>
1

>  <i_lp_mmshare_version>
42013

>  <i_f3d_flags>
0

>  <s_epik_input>
W0NIM11bQ0hdKFtDSDNdKWMxW2NIXWMoW2NIXVtjSF1bY0hdMSlbQ0gyXVtOSF1bQ0gyXVtDQEBIXShbT0hdKVtDQEBIXShbTkhdQyg9TyljKFtjSF1jMjMpW2NIXWMoW2NIXTMpTihbQ0gzXSlTKD1PKSg9TylbQ0gzXSlbQ0gyXVtDQEhdKFtDSDNdKVtDSDJdW0NIMl1bQ0gyXVtDSDJdW0NIMl1bQ0gyXVtDSDJdTjJTKD1PKSg9TylbQ0gzXQ==

>  <s_epik_cmdline>
J2VwaWtfcHl0aG9uJywgJy1waCcsICc3LjAnLCAnLXRuJywgJzgnLCAnLW1hJywgJzIwMCcsICctaW1hZScsICc8aW5maWxlLm1hZT4nLCAnLW9tYWUnLCAnPG91dGZpbGUubWFlPic=

>  <r_epik_Ionization_Penalty>
2.1294

>  <r_epik_Ionization_Penalty_Charging>
0.0000

>  <r_epik_Ionization_Penalty_Neutral>
2.1294

>  <r_epik_State_Penalty>
2.2676

>  <r_epik_Charging_Adjusted_Penalty>
2.26762

>  <i_epik_Tot_Q>
0

>  <i_epik_Tot_abs_Q>
0

>  <s_lp_Force_Field>
OPLS_2005

>  <r_lp_Energy>
40.2767

>  <b_lp_Chiralities_Consistent>
1

>  <s_lp_Variant>
BACE_69.smi:1-2

>  <chiral flag>
1

>  <version>
0

>  <s_i_glide_gridfile>
second_dock_grid_2

>  <i_i_glide_lignum>
138

>  <i_i_glide_rotatable_bonds>
10

>  <r_i_docking_score>
-1.7235

>  <r_i_glide_ligand_efficiency>
-0.0383

>  <r_i_glide_ligand_efficiency_sa>
-0.136229

>  <r_i_glide_ligand_efficiency_ln>
-0.358565

>  <r_glide_XP_GScore>
-3.9911

>  <r_i_glide_gscore>
-3.9911

>  <r_i_glide_evdw>
-43.3434

>  <r_i_glide_ecoul>
-15.1179

>  <r_i_glide_energy>
-58.4613

>  <r_i_glide_einternal>
6.30257

>  <r_i_glide_emodel>
-79.8091

>  <r_glide_XP_HBond>
-0.237277

>  <i_i_glide_confnum>
1

>  <i_i_glide_posenum>
24

>  <r_i_glide_eff_state_penalty>
2.2676

>  <i_glide_XP_PoseRank>
1

$$$$
