BACE_27.smi:1
 OpenBabel09291822493D
Structure written by MMmdl.
 93 94  0  0  1  0  0  0  0  0999 V2000
   22.1300   43.5045   -8.4431 C   0  0  0  0  0  0  0  0  0  0  0  0
   21.7259   43.1505   -6.9970 C   0  0  2  0  0  0  0  0  0  0  0  0
   22.9489   43.1042   -6.0571 C   0  0  0  0  0  0  0  0  0  0  0  0
   23.6431   44.4544   -5.8011 C   0  0  0  0  0  0  0  0  0  0  0  0
   22.8385   45.3823   -4.8737 C   0  0  0  0  0  0  0  0  0  0  0  0
   23.3590   46.8324   -4.8162 C   0  0  0  0  0  0  0  0  0  0  0  0
   23.3622   47.5906   -6.1631 C   0  0  0  0  0  0  0  0  0  0  0  0
   22.0337   47.5665   -6.9449 C   0  0  0  0  0  0  0  0  0  0  0  0
   20.8959   48.3604   -6.2790 C   0  0  0  0  0  0  0  0  0  0  0  0
   19.5454   48.2224   -7.0125 C   0  0  0  0  0  0  0  0  0  0  0  0
   18.8607   46.8557   -6.7858 C   0  0  0  0  0  0  0  0  0  0  0  0
   18.8601   46.4097   -5.6401 O   0  0  0  0  0  0  0  0  0  0  0  0
   18.2583   46.1950   -7.8089 N   0  0  0  0  0  0  0  0  0  0  0  0
   18.4010   46.6510   -9.2000 C   0  0  0  0  0  0  0  0  0  0  0  0
   17.5076   44.9378   -7.5638 C   0  0  1  0  0  0  0  0  0  0  0  0
   16.0352   45.0928   -7.9933 C   0  0  0  0  0  0  0  0  0  0  0  0
   18.1869   43.7137   -8.1973 C   0  0  0  0  0  0  0  0  0  0  0  0
   18.1360   43.5211   -9.4123 O   0  0  0  0  0  0  0  0  0  0  0  0
   18.8121   42.8810   -7.3470 N   0  0  0  0  0  0  0  0  0  0  0  0
   19.6463   41.7316   -7.7090 C   0  0  1  0  0  0  0  0  0  0  0  0
   20.9742   41.7998   -6.9255 C   0  0  0  0  0  0  0  0  0  0  0  0
   18.9137   40.3797   -7.4853 C   0  0  2  0  0  0  0  0  0  0  0  0
   19.5641   39.3779   -8.2485 O   0  0  0  0  0  0  0  0  0  0  0  0
   17.4512   40.4151   -7.9430 C   0  0  0  0  0  0  0  0  0  0  0  0
   16.8189   39.0768   -7.9292 N   0  3  0  0  0  0  0  0  0  0  0  0
   15.4670   38.9405   -8.5368 C   0  0  0  0  0  0  0  0  0  0  0  0
   15.4293   37.5566   -9.2190 C   0  0  0  0  0  0  0  0  0  0  0  0
   14.4056   38.9867   -7.4264 C   0  0  0  0  0  0  0  0  0  0  0  0
   15.1486   40.0466   -9.5394 C   0  0  0  0  0  0  0  0  0  0  0  0
   14.8561   41.4198   -9.2890 C   0  0  0  0  0  0  0  0  0  0  0  0
   14.7442   41.9687  -10.5331 C   0  0  0  0  0  0  0  0  0  0  0  0
   14.5414   43.3662  -11.0245 C   0  0  0  0  0  0  0  0  0  0  0  0
   13.0872   43.9006  -11.0296 C   0  0  0  0  0  0  0  0  0  0  0  0
   12.1007   42.8646  -11.5965 C   0  0  0  0  0  0  0  0  0  0  0  0
   12.6629   44.2491   -9.5883 C   0  0  0  0  0  0  0  0  0  0  0  0
   13.0372   45.1614  -11.9160 C   0  0  0  0  0  0  0  0  0  0  0  0
   14.8836   41.0073  -11.4794 O   0  0  0  0  0  0  0  0  0  0  0  0
   15.1725   39.8023  -10.8401 N   0  0  0  0  0  0  0  0  0  0  0  0
   21.0584   43.9312   -6.6371 H   0  0  0  0  0  0  0  0  0  0  0  0
   17.4490   44.7107   -6.4987 H   0  0  0  0  0  0  0  0  0  0  0  0
   19.8780   41.8011   -8.7734 H   0  0  0  0  0  0  0  0  0  0  0  0
   18.9508   40.0878   -6.4400 H   0  0  0  0  0  0  0  0  0  0  0  0
   22.6360   44.4676   -8.5021 H   0  0  0  0  0  0  0  0  0  0  0  0
   21.2627   43.5765   -9.0970 H   0  0  0  0  0  0  0  0  0  0  0  0
   22.7986   42.7520   -8.8628 H   0  0  0  0  0  0  0  0  0  0  0  0
   22.6684   42.6752   -5.0930 H   0  0  0  0  0  0  0  0  0  0  0  0
   23.6602   42.4089   -6.4945 H   0  0  0  0  0  0  0  0  0  0  0  0
   23.8658   44.9394   -6.7486 H   0  0  0  0  0  0  0  0  0  0  0  0
   24.6128   44.2691   -5.3367 H   0  0  0  0  0  0  0  0  0  0  0  0
   21.7872   45.3994   -5.1562 H   0  0  0  0  0  0  0  0  0  0  0  0
   22.8594   44.9508   -3.8724 H   0  0  0  0  0  0  0  0  0  0  0  0
   24.3723   46.8289   -4.4131 H   0  0  0  0  0  0  0  0  0  0  0  0
   22.7610   47.3906   -4.0963 H   0  0  0  0  0  0  0  0  0  0  0  0
   23.6580   48.6258   -5.9877 H   0  0  0  0  0  0  0  0  0  0  0  0
   24.1449   47.1771   -6.7993 H   0  0  0  0  0  0  0  0  0  0  0  0
   21.7280   46.5365   -7.1248 H   0  0  0  0  0  0  0  0  0  0  0  0
   22.2104   47.9870   -7.9357 H   0  0  0  0  0  0  0  0  0  0  0  0
   20.7870   48.0521   -5.2403 H   0  0  0  0  0  0  0  0  0  0  0  0
   21.1738   49.4138   -6.2425 H   0  0  0  0  0  0  0  0  0  0  0  0
   19.6997   48.4657   -8.0610 H   0  0  0  0  0  0  0  0  0  0  0  0
   18.8605   48.9790   -6.6289 H   0  0  0  0  0  0  0  0  0  0  0  0
   17.8951   46.0077   -9.9177 H   0  0  0  0  0  0  0  0  0  0  0  0
   19.4517   46.6731   -9.4915 H   0  0  0  0  0  0  0  0  0  0  0  0
   17.9774   47.6474   -9.3256 H   0  0  0  0  0  0  0  0  0  0  0  0
   15.5202   44.1325   -7.9699 H   0  0  0  0  0  0  0  0  0  0  0  0
   15.9260   45.5044   -8.9940 H   0  0  0  0  0  0  0  0  0  0  0  0
   15.4979   45.7506   -7.3126 H   0  0  0  0  0  0  0  0  0  0  0  0
   18.7397   43.0771   -6.3570 H   0  0  0  0  0  0  0  0  0  0  0  0
   20.7597   41.5778   -5.8783 H   0  0  0  0  0  0  0  0  0  0  0  0
   21.6369   41.0041   -7.2682 H   0  0  0  0  0  0  0  0  0  0  0  0
   20.4641   39.3146   -7.9623 H   0  0  0  0  0  0  0  0  0  0  0  0
   16.8658   41.0856   -7.3121 H   0  0  0  0  0  0  0  0  0  0  0  0
   17.4640   40.8174   -8.9559 H   0  0  0  0  0  0  0  0  0  0  0  0
   17.4513   38.4879   -8.4526 H   0  0  0  0  0  0  0  0  0  0  0  0
   15.6763   36.7675   -8.5097 H   0  0  0  0  0  0  0  0  0  0  0  0
   16.1528   37.4803  -10.0337 H   0  0  0  0  0  0  0  0  0  0  0  0
   14.4472   37.3500   -9.6403 H   0  0  0  0  0  0  0  0  0  0  0  0
   14.4725   38.1493   -6.7354 H   0  0  0  0  0  0  0  0  0  0  0  0
   13.4123   38.9500   -7.8707 H   0  0  0  0  0  0  0  0  0  0  0  0
   14.4633   39.9035   -6.8369 H   0  0  0  0  0  0  0  0  0  0  0  0
   14.7812   41.9262   -8.3372 H   0  0  0  0  0  0  0  0  0  0  0  0
   15.1891   44.0349  -10.4642 H   0  0  0  0  0  0  0  0  0  0  0  0
   14.9303   43.4130  -12.0391 H   0  0  0  0  0  0  0  0  0  0  0  0
   12.4062   42.5242  -12.5869 H   0  0  0  0  0  0  0  0  0  0  0  0
   11.0995   43.2831  -11.6891 H   0  0  0  0  0  0  0  0  0  0  0  0
   12.0288   41.9957  -10.9427 H   0  0  0  0  0  0  0  0  0  0  0  0
   13.3563   44.9492   -9.1243 H   0  0  0  0  0  0  0  0  0  0  0  0
   12.6397   43.3580   -8.9585 H   0  0  0  0  0  0  0  0  0  0  0  0
   11.6651   44.6892   -9.5560 H   0  0  0  0  0  0  0  0  0  0  0  0
   13.8086   45.8813  -11.6403 H   0  0  0  0  0  0  0  0  0  0  0  0
   12.0688   45.6586  -11.8588 H   0  0  0  0  0  0  0  0  0  0  0  0
   13.2046   44.9087  -12.9646 H   0  0  0  0  0  0  0  0  0  0  0  0
   16.7797   38.7164   -6.9843 H   0  0  0  0  0  0  0  0  0  0  0  0
  1  2  1  0  0  0  0
  1 43  1  0  0  0  0
  1 44  1  0  0  0  0
  1 45  1  0  0  0  0
  2 39  1  1  0  0  0
  2 21  1  0  0  0  0
  2  3  1  0  0  0  0
  3  4  1  0  0  0  0
  3 46  1  0  0  0  0
  3 47  1  0  0  0  0
  4  5  1  0  0  0  0
  4 48  1  0  0  0  0
  4 49  1  0  0  0  0
  5  6  1  0  0  0  0
  5 50  1  0  0  0  0
  5 51  1  0  0  0  0
  6  7  1  0  0  0  0
  6 52  1  0  0  0  0
  6 53  1  0  0  0  0
  7  8  1  0  0  0  0
  7 54  1  0  0  0  0
  7 55  1  0  0  0  0
  8  9  1  0  0  0  0
  8 56  1  0  0  0  0
  8 57  1  0  0  0  0
  9 10  1  0  0  0  0
  9 58  1  0  0  0  0
  9 59  1  0  0  0  0
 10 11  1  0  0  0  0
 10 60  1  0  0  0  0
 10 61  1  0  0  0  0
 11 12  2  0  0  0  0
 11 13  1  0  0  0  0
 13 14  1  0  0  0  0
 13 15  1  0  0  0  0
 14 62  1  0  0  0  0
 14 63  1  0  0  0  0
 14 64  1  0  0  0  0
 15 40  1  1  0  0  0
 15 16  1  0  0  0  0
 15 17  1  0  0  0  0
 16 65  1  0  0  0  0
 16 66  1  0  0  0  0
 16 67  1  0  0  0  0
 17 18  2  0  0  0  0
 17 19  1  0  0  0  0
 19 20  1  0  0  0  0
 19 68  1  0  0  0  0
 20 41  1  6  0  0  0
 20 21  1  0  0  0  0
 20 22  1  0  0  0  0
 21 69  1  0  0  0  0
 21 70  1  0  0  0  0
 22 42  1  1  0  0  0
 22 23  1  0  0  0  0
 22 24  1  0  0  0  0
 23 71  1  0  0  0  0
 24 25  1  0  0  0  0
 24 72  1  0  0  0  0
 24 73  1  0  0  0  0
 25 26  1  0  0  0  0
 25 74  1  0  0  0  0
 25 93  1  0  0  0  0
 26 27  1  0  0  0  0
 26 28  1  0  0  0  0
 26 29  1  0  0  0  0
 27 75  1  0  0  0  0
 27 76  1  0  0  0  0
 27 77  1  0  0  0  0
 28 78  1  0  0  0  0
 28 79  1  0  0  0  0
 28 80  1  0  0  0  0
 29 38  2  0  0  0  0
 29 30  1  0  0  0  0
 30 31  2  0  0  0  0
 30 81  1  0  0  0  0
 31 32  1  0  0  0  0
 31 37  1  0  0  0  0
 32 33  1  0  0  0  0
 32 82  1  0  0  0  0
 32 83  1  0  0  0  0
 33 34  1  0  0  0  0
 33 35  1  0  0  0  0
 33 36  1  0  0  0  0
 34 84  1  0  0  0  0
 34 85  1  0  0  0  0
 34 86  1  0  0  0  0
 35 87  1  0  0  0  0
 35 88  1  0  0  0  0
 35 89  1  0  0  0  0
 36 90  1  0  0  0  0
 36 91  1  0  0  0  0
 36 92  1  0  0  0  0
 37 38  1  0  0  0  0
M  CHG  1  25   1
M  END
>  <s_m_source_file>
BACE_27.smi

>  <i_m_source_file_index>
1

>  <i_lp_mmshare_version>
42013

>  <i_f3d_flags>
0

>  <s_epik_input>
W0NIM11bQ0BASF0xW0NIMl1bQ0gyXVtDSDJdW0NIMl1bQ0gyXVtDSDJdW0NIMl1bQ0gyXUMoPU8pTihbQ0gzXSlbQ0BASF0oW0NIM10pQyg9TylbTkhdW0NAQEhdKFtDSDJdMSlbQ0BIXShbT0hdKVtDSDJdW05IXUMoW0NIM10pKFtDSDNdKWMyW2NIXWMob24yKVtDSDJdQyhbQ0gzXSkoW0NIM10pW0NIM10=

>  <s_epik_cmdline>
J2VwaWtfcHl0aG9uJywgJy1waCcsICc3LjAnLCAnLXRuJywgJzgnLCAnLW1hJywgJzIwMCcsICctaW1hZScsICc8aW5maWxlLm1hZT4nLCAnLW9tYWUnLCAnPG91dGZpbGUubWFlPic=

>  <r_epik_Ionization_Penalty>
0.2108

>  <r_epik_Ionization_Penalty_Charging>
0.2108

>  <r_epik_Ionization_Penalty_Neutral>
0.0000

>  <r_epik_State_Penalty>
0.2009

>  <r_epik_Charging_Adjusted_Penalty>
0.411732

>  <i_epik_Tot_Q>
1

>  <i_epik_Tot_abs_Q>
1

>  <s_lp_Force_Field>
OPLS_2005

>  <r_lp_Energy>
35.4529

>  <b_lp_Chiralities_Consistent>
1

>  <s_lp_Variant>
BACE_27.smi:1-1

>  <chiral flag>
1

>  <version>
0

>  <s_i_glide_gridfile>
second_dock_grid_2

>  <i_i_glide_lignum>
45

>  <i_i_glide_rotatable_bonds>
8

>  <r_i_docking_score>
-3.29719

>  <r_i_glide_ligand_efficiency>
-0.0867681

>  <r_i_glide_ligand_efficiency_sa>
-0.291712

>  <r_i_glide_ligand_efficiency_ln>
-0.710971

>  <r_glide_XP_GScore>
-3.49809

>  <r_i_glide_gscore>
-3.49809

>  <r_i_glide_evdw>
-36.1992

>  <r_i_glide_ecoul>
-12.1406

>  <r_i_glide_energy>
-48.3398

>  <r_i_glide_einternal>
12.1549

>  <r_i_glide_emodel>
-65.8569

>  <r_glide_XP_HBond>
-0.905438

>  <i_i_glide_confnum>
1

>  <i_i_glide_posenum>
4

>  <r_i_glide_eff_state_penalty>
0.2009

>  <i_glide_XP_PoseRank>
1

$$$$
