BACE_22.smi:1
 OpenBabel09291822493D
Structure written by MMmdl.
 78 79  0  0  1  0  0  0  0  0999 V2000
   17.1114   39.2285   -8.3504 C   0  0  0  0  0  0  0  0  0  0  0  0
   18.6483   39.2105   -8.3998 C   0  0  2  0  0  0  0  0  0  0  0  0
   19.1849   39.9801   -7.2685 N   0  0  0  0  0  0  0  0  0  0  0  0
   20.4835   39.5541   -6.7305 C   0  0  0  0  0  0  0  0  0  0  0  0
   20.9877   40.4209   -5.5496 C   0  0  1  0  0  0  0  0  0  0  0  0
   22.1096   39.7492   -5.0080 O   0  0  0  0  0  0  0  0  0  0  0  0
   21.3641   41.8520   -5.9224 C   0  0  2  0  0  0  0  0  0  0  0  0
   22.0350   42.5238   -4.7010 C   0  0  0  0  0  0  0  0  0  0  0  0
   22.4024   44.0172   -4.8661 C   0  0  2  0  0  0  0  0  0  0  0  0
   21.1488   44.8004   -5.2454 C   0  0  0  0  0  0  0  0  0  0  0  0
   23.5284   44.2923   -5.8868 C   0  0  0  0  0  0  0  0  0  0  0  0
   23.5055   45.7240   -6.4552 C   0  0  0  0  0  0  0  0  0  0  0  0
   23.7381   46.8341   -5.4097 C   0  0  0  0  0  0  0  0  0  0  0  0
   23.6214   48.2668   -5.9768 C   0  0  0  0  0  0  0  0  0  0  0  0
   22.2541   48.6297   -6.6006 C   0  0  0  0  0  0  0  0  0  0  0  0
   21.0653   48.5258   -5.6225 C   0  0  0  0  0  0  0  0  0  0  0  0
   19.6975   48.8861   -6.2445 C   0  0  0  0  0  0  0  0  0  0  0  0
   19.1674   47.9023   -7.3247 C   0  0  0  0  0  0  0  0  0  0  0  0
   18.8650   46.4722   -6.8515 C   0  0  0  0  0  0  0  0  0  0  0  0
   18.6478   46.2400   -5.6737 O   0  0  0  0  0  0  0  0  0  0  0  0
   18.8328   45.5337   -7.8099 N   0  0  0  0  0  0  0  0  0  0  0  0
   19.1070   45.9515   -9.1700 C   0  0  0  0  0  0  0  0  0  0  0  0
   18.6492   44.0964   -7.5099 C   0  0  1  0  0  0  0  0  0  0  0  0
   17.9067   43.4435   -8.6723 C   0  0  0  0  0  0  0  0  0  0  0  0
   20.0113   43.3821   -7.3727 C   0  0  0  0  0  0  0  0  0  0  0  0
   20.8943   43.5446   -8.1987 O   0  0  0  0  0  0  0  0  0  0  0  0
   20.1438   42.5601   -6.3219 N   0  0  0  0  0  0  0  0  0  0  0  0
   19.1502   39.7133   -9.7523 C   0  0  0  0  0  0  0  0  0  0  0  0
   20.2043   39.0581  -10.4313 C   0  0  0  0  0  0  0  0  0  0  0  0
   20.6595   39.5406  -11.6743 C   0  0  0  0  0  0  0  0  0  0  0  0
   20.0682   40.6824  -12.2476 C   0  0  0  0  0  0  0  0  0  0  0  0
   19.0219   41.3433  -11.5761 C   0  0  0  0  0  0  0  0  0  0  0  0
   18.2235   42.8894  -12.3479 Br  0  0  0  0  0  0  0  0  0  0  0  0
   18.5661   40.8613  -10.3328 C   0  0  0  0  0  0  0  0  0  0  0  0
   18.9448   38.1672   -8.2983 H   0  0  0  0  0  0  0  0  0  0  0  0
   20.2292   40.4271   -4.7677 H   0  0  0  0  0  0  0  0  0  0  0  0
   22.0747   41.7569   -6.7434 H   0  0  0  0  0  0  0  0  0  0  0  0
   22.7023   44.4188   -3.8981 H   0  0  0  0  0  0  0  0  0  0  0  0
   18.0264   43.9308   -6.6308 H   0  0  0  0  0  0  0  0  0  0  0  0
   16.7455   38.8241   -7.4060 H   0  0  0  0  0  0  0  0  0  0  0  0
   16.6852   38.6216   -9.1500 H   0  0  0  0  0  0  0  0  0  0  0  0
   16.7127   40.2386   -8.4512 H   0  0  0  0  0  0  0  0  0  0  0  0
   18.4918   40.0506   -6.5303 H   0  0  0  0  0  0  0  0  0  0  0  0
   21.2209   39.5666   -7.5324 H   0  0  0  0  0  0  0  0  0  0  0  0
   20.4223   38.5114   -6.4166 H   0  0  0  0  0  0  0  0  0  0  0  0
   21.8313   38.8998   -4.7012 H   0  0  0  0  0  0  0  0  0  0  0  0
   21.3687   42.4220   -3.8444 H   0  0  0  0  0  0  0  0  0  0  0  0
   22.9291   41.9607   -4.4335 H   0  0  0  0  0  0  0  0  0  0  0  0
   21.3570   45.8638   -5.3602 H   0  0  0  0  0  0  0  0  0  0  0  0
   20.3730   44.7191   -4.4850 H   0  0  0  0  0  0  0  0  0  0  0  0
   20.7258   44.4477   -6.1867 H   0  0  0  0  0  0  0  0  0  0  0  0
   24.4985   44.0734   -5.4405 H   0  0  0  0  0  0  0  0  0  0  0  0
   23.4347   43.6102   -6.7318 H   0  0  0  0  0  0  0  0  0  0  0  0
   22.5454   45.8706   -6.9499 H   0  0  0  0  0  0  0  0  0  0  0  0
   24.2573   45.8096   -7.2397 H   0  0  0  0  0  0  0  0  0  0  0  0
   23.0429   46.7193   -4.5780 H   0  0  0  0  0  0  0  0  0  0  0  0
   24.7290   46.7067   -4.9739 H   0  0  0  0  0  0  0  0  0  0  0  0
   24.3994   48.4148   -6.7258 H   0  0  0  0  0  0  0  0  0  0  0  0
   23.8471   48.9778   -5.1821 H   0  0  0  0  0  0  0  0  0  0  0  0
   22.3072   49.6486   -6.9842 H   0  0  0  0  0  0  0  0  0  0  0  0
   22.0775   48.0048   -7.4760 H   0  0  0  0  0  0  0  0  0  0  0  0
   21.2504   49.1892   -4.7776 H   0  0  0  0  0  0  0  0  0  0  0  0
   21.0120   47.5230   -5.1986 H   0  0  0  0  0  0  0  0  0  0  0  0
   18.9577   48.9725   -5.4487 H   0  0  0  0  0  0  0  0  0  0  0  0
   19.7600   49.8850   -6.6763 H   0  0  0  0  0  0  0  0  0  0  0  0
   19.8651   47.8685   -8.1614 H   0  0  0  0  0  0  0  0  0  0  0  0
   18.2370   48.2967   -7.7332 H   0  0  0  0  0  0  0  0  0  0  0  0
   18.9323   45.1715   -9.9086 H   0  0  0  0  0  0  0  0  0  0  0  0
   20.1429   46.2738   -9.2819 H   0  0  0  0  0  0  0  0  0  0  0  0
   18.4497   46.7690   -9.4691 H   0  0  0  0  0  0  0  0  0  0  0  0
   17.7244   42.3850   -8.4816 H   0  0  0  0  0  0  0  0  0  0  0  0
   18.4637   43.5181   -9.6069 H   0  0  0  0  0  0  0  0  0  0  0  0
   16.9346   43.9111   -8.8327 H   0  0  0  0  0  0  0  0  0  0  0  0
   19.3462   42.4720   -5.7086 H   0  0  0  0  0  0  0  0  0  0  0  0
   20.6725   38.1831  -10.0044 H   0  0  0  0  0  0  0  0  0  0  0  0
   21.4640   39.0346  -12.1875 H   0  0  0  0  0  0  0  0  0  0  0  0
   20.4189   41.0508  -13.2005 H   0  0  0  0  0  0  0  0  0  0  0  0
   17.7639   41.3790   -9.8271 H   0  0  0  0  0  0  0  0  0  0  0  0
  1  2  1  0  0  0  0
  1 40  1  0  0  0  0
  1 41  1  0  0  0  0
  1 42  1  0  0  0  0
  2 35  1  1  0  0  0
  2  3  1  0  0  0  0
  2 28  1  0  0  0  0
  3  4  1  0  0  0  0
  3 43  1  0  0  0  0
  4  5  1  0  0  0  0
  4 44  1  0  0  0  0
  4 45  1  0  0  0  0
  5 36  1  1  0  0  0
  5  6  1  0  0  0  0
  5  7  1  0  0  0  0
  6 46  1  0  0  0  0
  7 37  1  6  0  0  0
  7 27  1  0  0  0  0
  7  8  1  0  0  0  0
  8  9  1  0  0  0  0
  8 47  1  0  0  0  0
  8 48  1  0  0  0  0
  9 38  1  1  0  0  0
  9 10  1  0  0  0  0
  9 11  1  0  0  0  0
 10 49  1  0  0  0  0
 10 50  1  0  0  0  0
 10 51  1  0  0  0  0
 11 12  1  0  0  0  0
 11 52  1  0  0  0  0
 11 53  1  0  0  0  0
 12 13  1  0  0  0  0
 12 54  1  0  0  0  0
 12 55  1  0  0  0  0
 13 14  1  0  0  0  0
 13 56  1  0  0  0  0
 13 57  1  0  0  0  0
 14 15  1  0  0  0  0
 14 58  1  0  0  0  0
 14 59  1  0  0  0  0
 15 16  1  0  0  0  0
 15 60  1  0  0  0  0
 15 61  1  0  0  0  0
 16 17  1  0  0  0  0
 16 62  1  0  0  0  0
 16 63  1  0  0  0  0
 17 18  1  0  0  0  0
 17 64  1  0  0  0  0
 17 65  1  0  0  0  0
 18 19  1  0  0  0  0
 18 66  1  0  0  0  0
 18 67  1  0  0  0  0
 19 20  2  0  0  0  0
 19 21  1  0  0  0  0
 21 22  1  0  0  0  0
 21 23  1  0  0  0  0
 22 68  1  0  0  0  0
 22 69  1  0  0  0  0
 22 70  1  0  0  0  0
 23 39  1  1  0  0  0
 23 24  1  0  0  0  0
 23 25  1  0  0  0  0
 24 71  1  0  0  0  0
 24 72  1  0  0  0  0
 24 73  1  0  0  0  0
 25 26  2  0  0  0  0
 25 27  1  0  0  0  0
 27 74  1  0  0  0  0
 28 34  1  0  0  0  0
 28 29  2  0  0  0  0
 29 30  1  0  0  0  0
 29 75  1  0  0  0  0
 30 31  2  0  0  0  0
 30 76  1  0  0  0  0
 31 32  1  0  0  0  0
 31 77  1  0  0  0  0
 32 33  1  0  0  0  0
 32 34  2  0  0  0  0
 34 78  1  0  0  0  0
M  END
>  <s_m_source_file>
BACE_22.smi

>  <i_m_source_file_index>
1

>  <i_lp_mmshare_version>
42013

>  <i_f3d_flags>
0

>  <s_epik_input>
QnJjKFtjSF0xKVtjSF1bY0hdW2NIXWMxW0NASF0oW0NIM10pW05IXVtDSDJdW0NAQEhdKFtPSF0pW0NAQEhdMltDSDJdW0NASF0oW0NIM10pW0NIMl1bQ0gyXVtDSDJdW0NIMl1bQ0gyXVtDSDJdW0NIMl1bQ0gyXUMoPU8pTihbQ0gzXSlbQ0BASF0oW0NIM10pQyg9TylbTkhdMg==

>  <s_epik_cmdline>
J2VwaWtfcHl0aG9uJywgJy1waCcsICc3LjAnLCAnLXRuJywgJzgnLCAnLW1hJywgJzIwMCcsICctaW1hZScsICc8aW5maWxlLm1hZT4nLCAnLW9tYWUnLCAnPG91dGZpbGUubWFlPic=

>  <r_epik_Ionization_Penalty>
1.9526

>  <r_epik_Ionization_Penalty_Charging>
0.0000

>  <r_epik_Ionization_Penalty_Neutral>
1.9526

>  <r_epik_State_Penalty>
2.0778

>  <r_epik_Charging_Adjusted_Penalty>
2.07781

>  <i_epik_Tot_Q>
0

>  <i_epik_Tot_abs_Q>
0

>  <s_lp_Force_Field>
OPLS_2005

>  <r_lp_Energy>
40.6292

>  <b_lp_Chiralities_Consistent>
1

>  <s_lp_Variant>
BACE_22.smi:1-2

>  <chiral flag>
1

>  <version>
0

>  <s_i_glide_gridfile>
second_dock_grid_2

>  <i_i_glide_lignum>
35

>  <i_i_glide_rotatable_bonds>
6

>  <r_i_docking_score>
-1.92244

>  <r_i_glide_ligand_efficiency>
-0.0565424

>  <r_i_glide_ligand_efficiency_sa>
-0.183175

>  <r_i_glide_ligand_efficiency_ln>
-0.424721

>  <r_glide_XP_GScore>
-4.00024

>  <r_i_glide_gscore>
-4.00024

>  <r_i_glide_evdw>
-35.9916

>  <r_i_glide_ecoul>
-8.97439

>  <r_i_glide_energy>
-44.966

>  <r_i_glide_einternal>
1.99437

>  <r_i_glide_emodel>
-65.4785

>  <r_glide_XP_HBond>
-0.573066

>  <i_i_glide_confnum>
1

>  <i_i_glide_posenum>
1

>  <r_i_glide_eff_state_penalty>
2.0778

>  <i_glide_XP_PoseRank>
1

$$$$
