BACE_137.smi:1
 OpenBabel09291822493D
Structure written by MMmdl.
 73 76  0  0  1  0  0  0  0  0999 V2000
   29.4814   41.4188  -13.2641 C   0  0  0  0  0  0  0  0  0  0  0  0
   29.7350   42.5593  -12.2660 C   0  0  0  0  0  0  0  0  0  0  0  0
   30.7126   42.1368  -11.1581 C   0  0  0  0  0  0  0  0  0  0  0  0
   28.4341   43.1023  -11.6878 C   0  0  0  0  0  0  0  0  0  0  0  0
   28.1114   44.4684  -11.8360 C   0  0  0  0  0  0  0  0  0  0  0  0
   26.9150   44.9785  -11.2963 C   0  0  0  0  0  0  0  0  0  0  0  0
   26.0345   44.1273  -10.6024 C   0  0  0  0  0  0  0  0  0  0  0  0
   26.3468   42.7612  -10.4482 C   0  0  0  0  0  0  0  0  0  0  0  0
   25.4029   41.8453   -9.6941 C   0  0  0  0  0  0  0  0  0  0  0  0
   24.1097   41.7259  -10.3586 N   0  0  0  0  0  0  0  0  0  0  0  0
   22.9771   41.8901   -9.4516 C   0  0  0  0  0  0  0  0  0  0  0  0
   22.6896   40.5862   -8.6751 C   0  0  1  0  0  0  0  0  0  0  0  0
   23.9235   40.1498   -8.1373 O   0  0  0  0  0  0  0  0  0  0  0  0
   21.6865   40.7638   -7.5056 C   0  0  2  0  0  0  0  0  0  0  0  0
   21.0822   39.4232   -7.0014 C   0  0  0  0  0  0  0  0  0  0  0  0
   19.8340   38.9563   -7.7436 C   0  0  0  0  0  0  0  0  0  0  0  0
   19.9491   38.2925   -8.9827 C   0  0  0  0  0  0  0  0  0  0  0  0
   18.7948   37.8735   -9.6719 C   0  0  0  0  0  0  0  0  0  0  0  0
   17.5199   38.1058   -9.1214 C   0  0  0  0  0  0  0  0  0  0  0  0
   17.3938   38.7641   -7.8807 C   0  0  0  0  0  0  0  0  0  0  0  0
   16.0229   38.9790   -7.2630 C   0  0  0  0  0  0  0  0  0  0  0  0
   15.3792   40.3450   -7.5715 C   0  0  0  0  0  0  0  0  0  0  0  0
   14.8593   40.5147   -9.0148 C   0  0  0  0  0  0  0  0  0  0  0  0
   15.8169   41.1770  -10.0252 C   0  0  0  0  0  0  0  0  0  0  0  0
   15.8497   42.5954   -9.8660 O   0  0  0  0  0  0  0  0  0  0  0  0
   16.7916   43.1872   -9.0508 C   0  0  0  0  0  0  0  0  0  0  0  0
   16.6002   44.5407   -8.7026 C   0  0  0  0  0  0  0  0  0  0  0  0
   17.4318   45.2393   -7.9008 N   0  0  0  0  0  0  0  0  0  0  0  0
   18.5168   44.6062   -7.4077 C   0  0  0  0  0  0  0  0  0  0  0  0
   18.8310   43.2637   -7.7062 C   0  0  0  0  0  0  0  0  0  0  0  0
   17.9462   42.5466   -8.5423 C   0  0  0  0  0  0  0  0  0  0  0  0
   20.0341   42.5996   -7.1069 C   0  0  0  0  0  0  0  0  0  0  0  0
   20.4392   42.9048   -5.9857 O   0  0  0  0  0  0  0  0  0  0  0  0
   20.6161   41.6805   -7.8925 N   0  0  0  0  0  0  0  0  0  0  0  0
   18.5527   39.1861   -7.1953 C   0  0  0  0  0  0  0  0  0  0  0  0
   27.5436   42.2522  -10.9952 C   0  0  0  0  0  0  0  0  0  0  0  0
   22.3132   39.8305   -9.3649 H   0  0  0  0  0  0  0  0  0  0  0  0
   22.2520   41.2041   -6.6817 H   0  0  0  0  0  0  0  0  0  0  0  0
   28.8315   41.7470  -14.0760 H   0  0  0  0  0  0  0  0  0  0  0  0
   29.0093   40.5606  -12.7849 H   0  0  0  0  0  0  0  0  0  0  0  0
   30.4148   41.0746  -13.7103 H   0  0  0  0  0  0  0  0  0  0  0  0
   30.2125   43.3681  -12.8209 H   0  0  0  0  0  0  0  0  0  0  0  0
   30.9229   42.9683  -10.4847 H   0  0  0  0  0  0  0  0  0  0  0  0
   31.6629   41.8076  -11.5791 H   0  0  0  0  0  0  0  0  0  0  0  0
   30.3151   41.3163  -10.5602 H   0  0  0  0  0  0  0  0  0  0  0  0
   28.7807   45.1335  -12.3619 H   0  0  0  0  0  0  0  0  0  0  0  0
   26.6738   46.0247  -11.4120 H   0  0  0  0  0  0  0  0  0  0  0  0
   25.1210   44.5275  -10.1874 H   0  0  0  0  0  0  0  0  0  0  0  0
   25.8644   40.8620   -9.5951 H   0  0  0  0  0  0  0  0  0  0  0  0
   25.2737   42.2332   -8.6829 H   0  0  0  0  0  0  0  0  0  0  0  0
   24.0461   40.8170  -10.8050 H   0  0  0  0  0  0  0  0  0  0  0  0
   23.1514   42.7154   -8.7599 H   0  0  0  0  0  0  0  0  0  0  0  0
   22.1068   42.1699  -10.0447 H   0  0  0  0  0  0  0  0  0  0  0  0
   24.3616   39.6152   -8.7815 H   0  0  0  0  0  0  0  0  0  0  0  0
   21.8231   38.6237   -7.0091 H   0  0  0  0  0  0  0  0  0  0  0  0
   20.8108   39.5459   -5.9520 H   0  0  0  0  0  0  0  0  0  0  0  0
   20.9224   38.1010   -9.4096 H   0  0  0  0  0  0  0  0  0  0  0  0
   18.8876   37.3669  -10.6214 H   0  0  0  0  0  0  0  0  0  0  0  0
   16.6395   37.7732   -9.6514 H   0  0  0  0  0  0  0  0  0  0  0  0
   15.3566   38.1726   -7.5720 H   0  0  0  0  0  0  0  0  0  0  0  0
   16.1249   38.8742   -6.1820 H   0  0  0  0  0  0  0  0  0  0  0  0
   14.5127   40.4313   -6.9149 H   0  0  0  0  0  0  0  0  0  0  0  0
   16.0341   41.1612   -7.2745 H   0  0  0  0  0  0  0  0  0  0  0  0
   14.5552   39.5401   -9.3977 H   0  0  0  0  0  0  0  0  0  0  0  0
   13.9444   41.1078   -8.9898 H   0  0  0  0  0  0  0  0  0  0  0  0
   16.7909   40.6959  -10.0616 H   0  0  0  0  0  0  0  0  0  0  0  0
   15.4025   41.0134  -11.0202 H   0  0  0  0  0  0  0  0  0  0  0  0
   15.7394   45.0788   -9.0718 H   0  0  0  0  0  0  0  0  0  0  0  0
   19.1517   45.1945   -6.7613 H   0  0  0  0  0  0  0  0  0  0  0  0
   18.1624   41.5158   -8.7673 H   0  0  0  0  0  0  0  0  0  0  0  0
   20.2194   41.5371   -8.8098 H   0  0  0  0  0  0  0  0  0  0  0  0
   18.4572   39.6910   -6.2449 H   0  0  0  0  0  0  0  0  0  0  0  0
   27.7797   41.2049  -10.8760 H   0  0  0  0  0  0  0  0  0  0  0  0
  1  2  1  0  0  0  0
  1 39  1  0  0  0  0
  1 40  1  0  0  0  0
  1 41  1  0  0  0  0
  2  3  1  0  0  0  0
  2  4  1  0  0  0  0
  2 42  1  0  0  0  0
  3 43  1  0  0  0  0
  3 44  1  0  0  0  0
  3 45  1  0  0  0  0
  4 36  1  0  0  0  0
  4  5  2  0  0  0  0
  5  6  1  0  0  0  0
  5 46  1  0  0  0  0
  6  7  2  0  0  0  0
  6 47  1  0  0  0  0
  7  8  1  0  0  0  0
  7 48  1  0  0  0  0
  8  9  1  0  0  0  0
  8 36  2  0  0  0  0
  9 10  1  0  0  0  0
  9 49  1  0  0  0  0
  9 50  1  0  0  0  0
 10 11  1  0  0  0  0
 10 51  1  0  0  0  0
 11 12  1  0  0  0  0
 11 52  1  0  0  0  0
 11 53  1  0  0  0  0
 12 37  1  6  0  0  0
 12 13  1  0  0  0  0
 12 14  1  0  0  0  0
 13 54  1  0  0  0  0
 14 38  1  1  0  0  0
 14 34  1  0  0  0  0
 14 15  1  0  0  0  0
 15 16  1  0  0  0  0
 15 55  1  0  0  0  0
 15 56  1  0  0  0  0
 16 35  1  0  0  0  0
 16 17  2  0  0  0  0
 17 18  1  0  0  0  0
 17 57  1  0  0  0  0
 18 19  2  0  0  0  0
 18 58  1  0  0  0  0
 19 20  1  0  0  0  0
 19 59  1  0  0  0  0
 20 21  1  0  0  0  0
 20 35  2  0  0  0  0
 21 22  1  0  0  0  0
 21 60  1  0  0  0  0
 21 61  1  0  0  0  0
 22 23  1  0  0  0  0
 22 62  1  0  0  0  0
 22 63  1  0  0  0  0
 23 24  1  0  0  0  0
 23 64  1  0  0  0  0
 23 65  1  0  0  0  0
 24 25  1  0  0  0  0
 24 66  1  0  0  0  0
 24 67  1  0  0  0  0
 25 26  1  0  0  0  0
 26 31  1  0  0  0  0
 26 27  2  0  0  0  0
 27 28  1  0  0  0  0
 27 68  1  0  0  0  0
 28 29  2  0  0  0  0
 29 30  1  0  0  0  0
 29 69  1  0  0  0  0
 30 31  2  0  0  0  0
 30 32  1  0  0  0  0
 31 70  1  0  0  0  0
 32 33  2  0  0  0  0
 32 34  1  0  0  0  0
 34 71  1  0  0  0  0
 35 72  1  0  0  0  0
 36 73  1  0  0  0  0
M  END
>  <s_m_source_file>
BACE_137.smi

>  <i_m_source_file_index>
1

>  <i_lp_mmshare_version>
42013

>  <i_f3d_flags>
0

>  <s_epik_input>
W0NIM11bQ0hdKFtDSDNdKWMxW2NIXVtjSF1bY0hdYyhbY0hdMSlbQ0gyXVtOSF1bQ0gyXVtDQEBIXShbT0hdKVtDQEhdKFtDSDJdMilbTkhdQyg9TyljKFtjSF0zKVtjSF1uW2NIXWMzT1tDSDJdW0NIMl1bQ0gyXVtDSDJdYyhbY0hdNClbY0hdW2NIXVtjSF1jMjQ=

>  <s_epik_cmdline>
J2VwaWtfcHl0aG9uJywgJy1waCcsICc3LjAnLCAnLXRuJywgJzgnLCAnLW1hJywgJzIwMCcsICctaW1hZScsICc8aW5maWxlLm1hZT4nLCAnLW9tYWUnLCAnPG91dGZpbGUubWFlPic=

>  <r_lp_tautomer_probability>
1

>  <r_epik_Ionization_Penalty>
2.0164

>  <r_epik_Ionization_Penalty_Charging>
0.0000

>  <r_epik_Ionization_Penalty_Neutral>
2.0164

>  <r_epik_State_Penalty>
2.1460

>  <r_epik_Charging_Adjusted_Penalty>
2.14597

>  <i_epik_Tot_Q>
0

>  <i_epik_Tot_abs_Q>
0

>  <s_lp_Force_Field>
OPLS_2005

>  <r_lp_Energy>
37.1229

>  <b_lp_Chiralities_Consistent>
1

>  <s_lp_Variant>
BACE_137.smi:1-2

>  <chiral flag>
1

>  <version>
0

>  <s_i_glide_gridfile>
second_dock_grid_2

>  <i_i_glide_lignum>
282

>  <i_i_glide_rotatable_bonds>
7

>  <r_i_docking_score>
0.0725207

>  <r_i_glide_ligand_efficiency>
0.00201446

>  <r_i_glide_ligand_efficiency_sa>
0.00665161

>  <r_i_glide_ligand_efficiency_ln>
0.0158221

>  <r_glide_XP_GScore>
-2.07348

>  <r_i_glide_gscore>
-2.07348

>  <r_i_glide_evdw>
-39.6368

>  <r_i_glide_ecoul>
-6.48194

>  <r_i_glide_energy>
-46.1187

>  <r_i_glide_einternal>
4.65188

>  <r_i_glide_emodel>
-64.0369

>  <r_glide_XP_HBond>
-1.18

>  <i_i_glide_confnum>
1

>  <i_i_glide_posenum>
6

>  <r_i_glide_eff_state_penalty>
2.146

>  <i_glide_XP_PoseRank>
1

$$$$
