BACE_68.smi:1
 OpenBabel09291822493D
Structure written by MMmdl.
 97100  0  0  1  0  0  0  0  0999 V2000
   21.4953   38.9566   -7.1315 C   0  0  0  0  0  0  0  0  0  0  0  0
   20.2829   39.5567   -7.8608 C   0  0  2  0  0  0  0  0  0  0  0  0
   19.2159   38.4722   -8.1245 C   0  0  0  0  0  0  0  0  0  0  0  0
   18.2348   38.2493   -6.9597 C   0  0  0  0  0  0  0  0  0  0  0  0
   16.8869   38.9704   -7.1487 C   0  0  0  0  0  0  0  0  0  0  0  0
   16.0097   38.3441   -8.2583 C   0  0  0  0  0  0  0  0  0  0  0  0
   14.5871   38.9237   -8.3791 C   0  0  0  0  0  0  0  0  0  0  0  0
   14.4625   40.1205   -9.3330 C   0  0  0  0  0  0  0  0  0  0  0  0
   14.9475   41.4402   -8.7181 C   0  0  0  0  0  0  0  0  0  0  0  0
   14.6970   42.5643   -9.6061 N   0  0  0  0  0  0  0  0  0  0  0  0
   15.7092   43.0118  -10.4625 C   0  0  0  0  0  0  0  0  0  0  0  0
   15.6202   44.3231  -10.9646 C   0  0  0  0  0  0  0  0  0  0  0  0
   16.6237   44.8411  -11.8072 C   0  0  0  0  0  0  0  0  0  0  0  0
   17.7136   44.0185  -12.1698 C   0  0  0  0  0  0  0  0  0  0  0  0
   17.8286   42.7099  -11.6535 C   0  0  0  0  0  0  0  0  0  0  0  0
   16.8064   42.1995  -10.8303 C   0  0  0  0  0  0  0  0  0  0  0  0
   18.9996   41.8642  -12.0538 C   0  0  0  0  0  0  0  0  0  0  0  0
   19.2602   41.7500  -13.2403 O   0  0  0  0  0  0  0  0  0  0  0  0
   19.7962   41.2960  -11.1352 N   0  0  0  0  0  0  0  0  0  0  0  0
   19.7489   41.3163   -9.6762 C   0  0  1  0  0  0  0  0  0  0  0  0
   20.7165   40.2116   -9.1857 C   0  0  0  0  0  0  0  0  0  0  0  0
   20.1229   42.7019   -9.0695 C   0  0  2  0  0  0  0  0  0  0  0  0
   18.9618   43.5010   -8.9778 O   0  0  0  0  0  0  0  0  0  0  0  0
   21.2328   43.5184   -9.7937 C   0  0  0  0  0  0  0  0  0  0  0  0
   22.5883   43.1935   -9.3318 N   0  0  0  0  0  0  0  0  0  0  0  0
   23.1205   44.0175   -8.2374 C   0  0  0  0  0  0  0  0  0  0  0  0
   23.8643   45.2782   -8.6077 C   0  0  0  0  0  0  0  0  0  0  0  0
   24.6225   44.0733   -8.0883 C   0  0  0  0  0  0  0  0  0  0  0  0
   22.2594   43.9962   -7.0094 C   0  0  0  0  0  0  0  0  0  0  0  0
   22.4392   42.9980   -6.0272 C   0  0  0  0  0  0  0  0  0  0  0  0
   21.5621   42.8986   -4.9194 C   0  0  0  0  0  0  0  0  0  0  0  0
   20.4776   43.8018   -4.8401 C   0  0  0  0  0  0  0  0  0  0  0  0
   20.3115   44.8223   -5.7917 C   0  0  0  0  0  0  0  0  0  0  0  0
   21.2133   44.9317   -6.8619 C   0  0  0  0  0  0  0  0  0  0  0  0
   21.7602   41.8647   -3.7983 C   0  0  0  0  0  0  0  0  0  0  0  0
   20.5191   40.9631   -3.6785 C   0  0  0  0  0  0  0  0  0  0  0  0
   22.9796   40.9481   -4.0288 C   0  0  0  0  0  0  0  0  0  0  0  0
   21.9628   42.6168   -2.4676 C   0  0  0  0  0  0  0  0  0  0  0  0
   16.4820   46.2358  -12.3471 C   0  0  0  0  0  0  0  0  0  0  0  0
   15.4158   46.5568  -12.8790 O   0  0  0  0  0  0  0  0  0  0  0  0
   17.5253   47.0919  -12.2170 N   0  0  0  0  0  0  0  0  0  0  0  0
   17.4807   48.4032  -12.8647 C   0  0  0  0  0  0  0  0  0  0  0  0
   18.6917   46.8567  -11.3590 C   0  0  0  0  0  0  0  0  0  0  0  0
   19.8591   40.3332   -7.2214 H   0  0  0  0  0  0  0  0  0  0  0  0
   18.7491   41.0325   -9.3515 H   0  0  0  0  0  0  0  0  0  0  0  0
   20.3934   42.5333   -8.0294 H   0  0  0  0  0  0  0  0  0  0  0  0
   21.2107   38.5513   -6.1609 H   0  0  0  0  0  0  0  0  0  0  0  0
   21.9499   38.1517   -7.7103 H   0  0  0  0  0  0  0  0  0  0  0  0
   22.2634   39.7110   -6.9685 H   0  0  0  0  0  0  0  0  0  0  0  0
   19.7117   37.5323   -8.3659 H   0  0  0  0  0  0  0  0  0  0  0  0
   18.6587   38.7149   -9.0270 H   0  0  0  0  0  0  0  0  0  0  0  0
   18.0597   37.1808   -6.8406 H   0  0  0  0  0  0  0  0  0  0  0  0
   18.6882   38.5689   -6.0219 H   0  0  0  0  0  0  0  0  0  0  0  0
   16.3370   38.9353   -6.2061 H   0  0  0  0  0  0  0  0  0  0  0  0
   17.0773   40.0234   -7.3341 H   0  0  0  0  0  0  0  0  0  0  0  0
   16.5027   38.3898   -9.2288 H   0  0  0  0  0  0  0  0  0  0  0  0
   15.9110   37.2823   -8.0404 H   0  0  0  0  0  0  0  0  0  0  0  0
   14.1771   39.1590   -7.3953 H   0  0  0  0  0  0  0  0  0  0  0  0
   13.9407   38.1422   -8.7778 H   0  0  0  0  0  0  0  0  0  0  0  0
   14.9903   39.9065  -10.2623 H   0  0  0  0  0  0  0  0  0  0  0  0
   13.4164   40.2281   -9.6252 H   0  0  0  0  0  0  0  0  0  0  0  0
   14.4489   41.6235   -7.7680 H   0  0  0  0  0  0  0  0  0  0  0  0
   16.0062   41.4004   -8.4760 H   0  0  0  0  0  0  0  0  0  0  0  0
   13.9696   43.2033   -9.3232 H   0  0  0  0  0  0  0  0  0  0  0  0
   14.7781   44.9443  -10.6939 H   0  0  0  0  0  0  0  0  0  0  0  0
   18.4760   44.3952  -12.8379 H   0  0  0  0  0  0  0  0  0  0  0  0
   16.8770   41.1780  -10.4885 H   0  0  0  0  0  0  0  0  0  0  0  0
   20.5663   40.7713  -11.5235 H   0  0  0  0  0  0  0  0  0  0  0  0
   21.7193   40.6275   -9.0884 H   0  0  0  0  0  0  0  0  0  0  0  0
   20.8176   39.4185   -9.9301 H   0  0  0  0  0  0  0  0  0  0  0  0
   18.5297   43.5050   -9.8204 H   0  0  0  0  0  0  0  0  0  0  0  0
   21.0605   44.5864   -9.6572 H   0  0  0  0  0  0  0  0  0  0  0  0
   21.1753   43.3740  -10.8712 H   0  0  0  0  0  0  0  0  0  0  0  0
   22.6744   42.2090   -9.1034 H   0  0  0  0  0  0  0  0  0  0  0  0
   23.9839   45.5139   -9.6633 H   0  0  0  0  0  0  0  0  0  0  0  0
   23.7806   46.1354   -7.9435 H   0  0  0  0  0  0  0  0  0  0  0  0
   25.0357   44.1394   -7.0836 H   0  0  0  0  0  0  0  0  0  0  0  0
   25.2323   43.5315   -8.8082 H   0  0  0  0  0  0  0  0  0  0  0  0
   23.2600   42.3090   -6.1531 H   0  0  0  0  0  0  0  0  0  0  0  0
   19.7770   43.7418   -4.0217 H   0  0  0  0  0  0  0  0  0  0  0  0
   19.4894   45.5169   -5.7077 H   0  0  0  0  0  0  0  0  0  0  0  0
   21.0668   45.7016   -7.6052 H   0  0  0  0  0  0  0  0  0  0  0  0
   19.6601   41.5392   -3.3437 H   0  0  0  0  0  0  0  0  0  0  0  0
   20.6648   40.1669   -2.9476 H   0  0  0  0  0  0  0  0  0  0  0  0
   20.2664   40.4939   -4.6302 H   0  0  0  0  0  0  0  0  0  0  0  0
   23.9125   41.5116   -4.0398 H   0  0  0  0  0  0  0  0  0  0  0  0
   22.8992   40.3942   -4.9600 H   0  0  0  0  0  0  0  0  0  0  0  0
   23.0607   40.2019   -3.2406 H   0  0  0  0  0  0  0  0  0  0  0  0
   22.8568   43.2410   -2.4938 H   0  0  0  0  0  0  0  0  0  0  0  0
   22.0599   41.9217   -1.6402 H   0  0  0  0  0  0  0  0  0  0  0  0
   21.1226   43.2676   -2.2235 H   0  0  0  0  0  0  0  0  0  0  0  0
   18.4526   48.8983  -12.8561 H   0  0  0  0  0  0  0  0  0  0  0  0
   16.7646   49.0558  -12.3597 H   0  0  0  0  0  0  0  0  0  0  0  0
   17.1825   48.3099  -13.9127 H   0  0  0  0  0  0  0  0  0  0  0  0
   19.1327   47.7933  -11.0136 H   0  0  0  0  0  0  0  0  0  0  0  0
   19.4613   46.2993  -11.8991 H   0  0  0  0  0  0  0  0  0  0  0  0
   18.4320   46.2929  -10.4607 H   0  0  0  0  0  0  0  0  0  0  0  0
  1  2  1  0  0  0  0
  1 47  1  0  0  0  0
  1 48  1  0  0  0  0
  1 49  1  0  0  0  0
  2 44  1  1  0  0  0
  2 21  1  0  0  0  0
  2  3  1  0  0  0  0
  3  4  1  0  0  0  0
  3 50  1  0  0  0  0
  3 51  1  0  0  0  0
  4  5  1  0  0  0  0
  4 52  1  0  0  0  0
  4 53  1  0  0  0  0
  5  6  1  0  0  0  0
  5 54  1  0  0  0  0
  5 55  1  0  0  0  0
  6  7  1  0  0  0  0
  6 56  1  0  0  0  0
  6 57  1  0  0  0  0
  7  8  1  0  0  0  0
  7 58  1  0  0  0  0
  7 59  1  0  0  0  0
  8  9  1  0  0  0  0
  8 60  1  0  0  0  0
  8 61  1  0  0  0  0
  9 10  1  0  0  0  0
  9 62  1  0  0  0  0
  9 63  1  0  0  0  0
 10 11  1  0  0  0  0
 10 64  1  0  0  0  0
 11 16  1  0  0  0  0
 11 12  2  0  0  0  0
 12 13  1  0  0  0  0
 12 65  1  0  0  0  0
 13 14  2  0  0  0  0
 13 39  1  0  0  0  0
 14 15  1  0  0  0  0
 14 66  1  0  0  0  0
 15 16  2  0  0  0  0
 15 17  1  0  0  0  0
 16 67  1  0  0  0  0
 17 18  2  0  0  0  0
 17 19  1  0  0  0  0
 19 20  1  0  0  0  0
 19 68  1  0  0  0  0
 20 45  1  1  0  0  0
 20 21  1  0  0  0  0
 20 22  1  0  0  0  0
 21 69  1  0  0  0  0
 21 70  1  0  0  0  0
 22 46  1  1  0  0  0
 22 23  1  0  0  0  0
 22 24  1  0  0  0  0
 23 71  1  0  0  0  0
 24 25  1  0  0  0  0
 24 72  1  0  0  0  0
 24 73  1  0  0  0  0
 25 26  1  0  0  0  0
 25 74  1  0  0  0  0
 26 28  1  0  0  0  0
 26 27  1  0  0  0  0
 26 29  1  0  0  0  0
 27 28  1  0  0  0  0
 27 75  1  0  0  0  0
 27 76  1  0  0  0  0
 28 77  1  0  0  0  0
 28 78  1  0  0  0  0
 29 34  1  0  0  0  0
 29 30  2  0  0  0  0
 30 31  1  0  0  0  0
 30 79  1  0  0  0  0
 31 32  2  0  0  0  0
 31 35  1  0  0  0  0
 32 33  1  0  0  0  0
 32 80  1  0  0  0  0
 33 34  2  0  0  0  0
 33 81  1  0  0  0  0
 34 82  1  0  0  0  0
 35 36  1  0  0  0  0
 35 37  1  0  0  0  0
 35 38  1  0  0  0  0
 36 83  1  0  0  0  0
 36 84  1  0  0  0  0
 36 85  1  0  0  0  0
 37 86  1  0  0  0  0
 37 87  1  0  0  0  0
 37 88  1  0  0  0  0
 38 89  1  0  0  0  0
 38 90  1  0  0  0  0
 38 91  1  0  0  0  0
 39 40  2  0  0  0  0
 39 41  1  0  0  0  0
 41 42  1  0  0  0  0
 41 43  1  0  0  0  0
 42 92  1  0  0  0  0
 42 93  1  0  0  0  0
 42 94  1  0  0  0  0
 43 95  1  0  0  0  0
 43 96  1  0  0  0  0
 43 97  1  0  0  0  0
M  END
>  <s_m_source_file>
BACE_68.smi

>  <i_m_source_file_index>
1

>  <i_lp_mmshare_version>
42013

>  <i_f3d_flags>
0

>  <s_epik_input>
W05IXTFbQ0gyXVtDSDJdW0NIMl1bQ0gyXVtDSDJdW0NIMl1bQ0gyXVtDQEBIXShbQ0gzXSlbQ0gyXVtDQEhdKFtOSF1DKD1PKWMoW2NIXTIpW2NIXWMoW2NIXWMxMilDKD1PKU4oW0NIM10pW0NIM10pW0NASF0oW09IXSlbQ0gyXVtOSF1DMyhbQ0gyXVtDSDJdMyljNFtjSF1jKEMoW0NIM10pKFtDSDNdKVtDSDNdKVtjSF1bY0hdW2NIXTQ=

>  <s_epik_cmdline>
J2VwaWtfcHl0aG9uJywgJy1waCcsICc3LjAnLCAnLXRuJywgJzgnLCAnLW1hJywgJzIwMCcsICctaW1hZScsICc8aW5maWxlLm1hZT4nLCAnLW9tYWUnLCAnPG91dGZpbGUubWFlPic=

>  <r_epik_Ionization_Penalty>
0.3642

>  <r_epik_Ionization_Penalty_Charging>
0.0000

>  <r_epik_Ionization_Penalty_Neutral>
0.3642

>  <r_epik_State_Penalty>
0.3611

>  <r_epik_Charging_Adjusted_Penalty>
0.361069

>  <i_epik_Tot_Q>
0

>  <i_epik_Tot_abs_Q>
0

>  <s_lp_Force_Field>
OPLS_2005

>  <r_lp_Energy>
68.3834

>  <b_lp_Chiralities_Consistent>
1

>  <s_lp_Variant>
BACE_68.smi:1-1

>  <chiral flag>
1

>  <version>
0

>  <s_i_glide_gridfile>
second_dock_grid_2

>  <i_i_glide_lignum>
135

>  <i_i_glide_rotatable_bonds>
9

>  <r_i_docking_score>
-3.5901

>  <r_i_glide_ligand_efficiency>
-0.0834907

>  <r_i_glide_ligand_efficiency_sa>
-0.292501

>  <r_i_glide_ligand_efficiency_ln>
-0.754033

>  <r_glide_XP_GScore>
-3.9512

>  <r_i_glide_gscore>
-3.9512

>  <r_i_glide_evdw>
-44.8989

>  <r_i_glide_ecoul>
-5.27712

>  <r_i_glide_energy>
-50.176

>  <r_i_glide_einternal>
6.96295

>  <r_i_glide_emodel>
-68.2466

>  <r_glide_XP_HBond>
-1.36883

>  <i_i_glide_confnum>
1

>  <i_i_glide_posenum>
3

>  <r_i_glide_eff_state_penalty>
0.3611

>  <i_glide_XP_PoseRank>
1

$$$$
