BACE_134.smi:1
 OpenBabel09291822493D
Structure written by MMmdl.
 81 84  0  0  1  0  0  0  0  0999 V2000
   15.3540   47.6029  -13.3167 C   0  0  0  0  0  0  0  0  0  0  0  0
   15.2854   46.8377  -12.1254 O   0  0  0  0  0  0  0  0  0  0  0  0
   16.3992   46.6337  -11.3936 C   0  0  0  0  0  0  0  0  0  0  0  0
   17.1438   47.5419  -11.0184 O   0  0  0  0  0  0  0  0  0  0  0  0
   16.6368   45.1944  -11.0808 C   0  0  0  0  0  0  0  0  0  0  0  0
   15.6312   44.2145  -11.2576 C   0  0  0  0  0  0  0  0  0  0  0  0
   15.8674   42.8593  -10.9524 C   0  0  0  0  0  0  0  0  0  0  0  0
   17.1411   42.4815  -10.4643 C   0  0  0  0  0  0  0  0  0  0  0  0
   18.1626   43.4418  -10.2878 C   0  0  0  0  0  0  0  0  0  0  0  0
   17.8996   44.7943  -10.5906 C   0  0  0  0  0  0  0  0  0  0  0  0
   19.5016   43.0426   -9.7378 C   0  0  0  0  0  0  0  0  0  0  0  0
   20.1751   43.8246   -9.0663 O   0  0  0  0  0  0  0  0  0  0  0  0
   19.9080   41.8069  -10.0675 N   0  0  0  0  0  0  0  0  0  0  0  0
   21.1139   41.1413   -9.5812 C   0  0  1  0  0  0  0  0  0  0  0  0
   20.8870   39.6139   -9.4927 C   0  0  0  0  0  0  0  0  0  0  0  0
   19.6418   39.2394   -8.7035 C   0  0  0  0  0  0  0  0  0  0  0  0
   18.4686   38.8245   -9.3699 C   0  0  0  0  0  0  0  0  0  0  0  0
   17.3147   38.4759   -8.6353 C   0  0  0  0  0  0  0  0  0  0  0  0
   16.0639   37.9975   -9.3572 C   0  0  0  0  0  0  0  0  0  0  0  0
   14.7889   38.8040   -9.0377 C   0  0  0  0  0  0  0  0  0  0  0  0
   14.8588   40.3060   -9.3685 C   0  0  0  0  0  0  0  0  0  0  0  0
   14.9877   40.5988  -10.8755 C   0  0  0  0  0  0  0  0  0  0  0  0
   14.8193   41.9854  -11.1571 O   0  0  0  0  0  0  0  0  0  0  0  0
   17.3422   38.5433   -7.2260 C   0  0  0  0  0  0  0  0  0  0  0  0
   18.5081   38.9646   -6.5587 C   0  0  0  0  0  0  0  0  0  0  0  0
   19.6562   39.3113   -7.2954 C   0  0  0  0  0  0  0  0  0  0  0  0
   22.3554   41.5734  -10.4010 C   0  0  2  0  0  0  0  0  0  0  0  0
   22.0560   41.5574  -11.7837 O   0  0  0  0  0  0  0  0  0  0  0  0
   23.5641   40.6531  -10.1575 C   0  0  0  0  0  0  0  0  0  0  0  0
   24.8394   41.3455  -10.4410 N   0  3  0  0  0  0  0  0  0  0  0  0
   24.9842   42.6720   -9.8035 C   0  0  0  0  0  0  0  0  0  0  0  0
   26.4148   43.1788   -9.8512 C   0  0  0  0  0  0  0  0  0  0  0  0
   27.2911   42.7312  -10.8624 C   0  0  0  0  0  0  0  0  0  0  0  0
   28.6306   43.1756  -10.8998 C   0  0  0  0  0  0  0  0  0  0  0  0
   29.0839   44.0876   -9.9226 C   0  0  0  0  0  0  0  0  0  0  0  0
   28.2095   44.5451   -8.9181 C   0  0  0  0  0  0  0  0  0  0  0  0
   26.8776   44.0904   -8.8803 C   0  0  0  0  0  0  0  0  0  0  0  0
   29.5835   42.6724  -11.9765 C   0  0  0  0  0  0  0  0  0  0  0  0
   30.6940   41.7905  -11.3844 C   0  0  0  0  0  0  0  0  0  0  0  0
   30.1601   43.8306  -12.8072 C   0  0  0  0  0  0  0  0  0  0  0  0
   21.2680   41.4880   -8.5572 H   0  0  0  0  0  0  0  0  0  0  0  0
   22.6316   42.5914  -10.1214 H   0  0  0  0  0  0  0  0  0  0  0  0
   14.3645   47.6763  -13.7675 H   0  0  0  0  0  0  0  0  0  0  0  0
   16.0242   47.1367  -14.0399 H   0  0  0  0  0  0  0  0  0  0  0  0
   15.7093   48.6134  -13.1104 H   0  0  0  0  0  0  0  0  0  0  0  0
   14.6543   44.4857  -11.6305 H   0  0  0  0  0  0  0  0  0  0  0  0
   17.3466   41.4536  -10.2111 H   0  0  0  0  0  0  0  0  0  0  0  0
   18.6784   45.5298  -10.4441 H   0  0  0  0  0  0  0  0  0  0  0  0
   19.2917   41.2546  -10.6463 H   0  0  0  0  0  0  0  0  0  0  0  0
   20.8091   39.1823  -10.4912 H   0  0  0  0  0  0  0  0  0  0  0  0
   21.7443   39.1318   -9.0221 H   0  0  0  0  0  0  0  0  0  0  0  0
   18.4554   38.7703  -10.4489 H   0  0  0  0  0  0  0  0  0  0  0  0
   16.2396   37.9980  -10.4333 H   0  0  0  0  0  0  0  0  0  0  0  0
   15.9030   36.9539   -9.0853 H   0  0  0  0  0  0  0  0  0  0  0  0
   13.9487   38.3611   -9.5734 H   0  0  0  0  0  0  0  0  0  0  0  0
   14.5502   38.6923   -7.9798 H   0  0  0  0  0  0  0  0  0  0  0  0
   13.9444   40.7763   -9.0054 H   0  0  0  0  0  0  0  0  0  0  0  0
   15.6691   40.7717   -8.8088 H   0  0  0  0  0  0  0  0  0  0  0  0
   15.9169   40.2127  -11.2953 H   0  0  0  0  0  0  0  0  0  0  0  0
   14.1911   40.0755  -11.4046 H   0  0  0  0  0  0  0  0  0  0  0  0
   16.4706   38.2691   -6.6503 H   0  0  0  0  0  0  0  0  0  0  0  0
   18.5231   39.0171   -5.4801 H   0  0  0  0  0  0  0  0  0  0  0  0
   20.5481   39.6316   -6.7769 H   0  0  0  0  0  0  0  0  0  0  0  0
   22.8373   41.3123  -12.2566 H   0  0  0  0  0  0  0  0  0  0  0  0
   23.5666   40.3360   -9.1145 H   0  0  0  0  0  0  0  0  0  0  0  0
   23.4930   39.7508  -10.7665 H   0  0  0  0  0  0  0  0  0  0  0  0
   25.5882   40.7552  -10.1071 H   0  0  0  0  0  0  0  0  0  0  0  0
   24.3136   43.3877  -10.2810 H   0  0  0  0  0  0  0  0  0  0  0  0
   24.6674   42.5939   -8.7630 H   0  0  0  0  0  0  0  0  0  0  0  0
   26.9359   42.0313  -11.6048 H   0  0  0  0  0  0  0  0  0  0  0  0
   30.1052   44.4395   -9.9367 H   0  0  0  0  0  0  0  0  0  0  0  0
   28.5629   45.2431   -8.1732 H   0  0  0  0  0  0  0  0  0  0  0  0
   26.2150   44.4415   -8.1027 H   0  0  0  0  0  0  0  0  0  0  0  0
   29.0088   42.0454  -12.6596 H   0  0  0  0  0  0  0  0  0  0  0  0
   30.2730   40.9422  -10.8437 H   0  0  0  0  0  0  0  0  0  0  0  0
   31.3262   42.3468  -10.6919 H   0  0  0  0  0  0  0  0  0  0  0  0
   31.3373   41.3922  -12.1696 H   0  0  0  0  0  0  0  0  0  0  0  0
   29.3634   44.4158  -13.2677 H   0  0  0  0  0  0  0  0  0  0  0  0
   30.7974   43.4569  -13.6090 H   0  0  0  0  0  0  0  0  0  0  0  0
   30.7606   44.5066  -12.1980 H   0  0  0  0  0  0  0  0  0  0  0  0
   24.9362   41.4523  -11.4406 H   0  0  0  0  0  0  0  0  0  0  0  0
  1  2  1  0  0  0  0
  1 43  1  0  0  0  0
  1 44  1  0  0  0  0
  1 45  1  0  0  0  0
  2  3  1  0  0  0  0
  3  4  2  0  0  0  0
  3  5  1  0  0  0  0
  5 10  1  0  0  0  0
  5  6  2  0  0  0  0
  6  7  1  0  0  0  0
  6 46  1  0  0  0  0
  7 23  1  0  0  0  0
  7  8  2  0  0  0  0
  8  9  1  0  0  0  0
  8 47  1  0  0  0  0
  9 10  2  0  0  0  0
  9 11  1  0  0  0  0
 10 48  1  0  0  0  0
 11 12  2  0  0  0  0
 11 13  1  0  0  0  0
 13 14  1  0  0  0  0
 13 49  1  0  0  0  0
 14 41  1  1  0  0  0
 14 15  1  0  0  0  0
 14 27  1  0  0  0  0
 15 16  1  0  0  0  0
 15 50  1  0  0  0  0
 15 51  1  0  0  0  0
 16 26  1  0  0  0  0
 16 17  2  0  0  0  0
 17 18  1  0  0  0  0
 17 52  1  0  0  0  0
 18 19  1  0  0  0  0
 18 24  2  0  0  0  0
 19 20  1  0  0  0  0
 19 53  1  0  0  0  0
 19 54  1  0  0  0  0
 20 21  1  0  0  0  0
 20 55  1  0  0  0  0
 20 56  1  0  0  0  0
 21 22  1  0  0  0  0
 21 57  1  0  0  0  0
 21 58  1  0  0  0  0
 22 23  1  0  0  0  0
 22 59  1  0  0  0  0
 22 60  1  0  0  0  0
 24 25  1  0  0  0  0
 24 61  1  0  0  0  0
 25 26  2  0  0  0  0
 25 62  1  0  0  0  0
 26 63  1  0  0  0  0
 27 42  1  1  0  0  0
 27 28  1  0  0  0  0
 27 29  1  0  0  0  0
 28 64  1  0  0  0  0
 29 30  1  0  0  0  0
 29 65  1  0  0  0  0
 29 66  1  0  0  0  0
 30 31  1  0  0  0  0
 30 67  1  0  0  0  0
 30 81  1  0  0  0  0
 31 32  1  0  0  0  0
 31 68  1  0  0  0  0
 31 69  1  0  0  0  0
 32 37  1  0  0  0  0
 32 33  2  0  0  0  0
 33 34  1  0  0  0  0
 33 70  1  0  0  0  0
 34 35  2  0  0  0  0
 34 38  1  0  0  0  0
 35 36  1  0  0  0  0
 35 71  1  0  0  0  0
 36 37  2  0  0  0  0
 36 72  1  0  0  0  0
 37 73  1  0  0  0  0
 38 39  1  0  0  0  0
 38 40  1  0  0  0  0
 38 74  1  0  0  0  0
 39 75  1  0  0  0  0
 39 76  1  0  0  0  0
 39 77  1  0  0  0  0
 40 78  1  0  0  0  0
 40 79  1  0  0  0  0
 40 80  1  0  0  0  0
M  CHG  1  30   1
M  END
>  <s_m_source_file>
BACE_134.smi

>  <i_m_source_file_index>
1

>  <i_lp_mmshare_version>
42013

>  <i_f3d_flags>
0

>  <s_epik_input>
TzFbQ0gyXVtDSDJdW0NIMl1bQ0gyXWMoW2NIXVtjSF1bY0hdMilbY0hdYzJbQ0gyXVtDQEhdKFtOSF1DKD1PKWMoW2NIXTMpW2NIXWMoW2NIXWMxMylDKD1PKU9bQ0gzXSlbQ0BIXShbT0hdKVtDSDJdW05IXVtDSDJdYzRbY0hdYyhbQ0hdKFtDSDNdKVtDSDNdKVtjSF1bY0hdW2NIXTQ=

>  <s_epik_cmdline>
J2VwaWtfcHl0aG9uJywgJy1waCcsICc3LjAnLCAnLXRuJywgJzgnLCAnLW1hJywgJzIwMCcsICctaW1hZScsICc8aW5maWxlLm1hZT4nLCAnLW9tYWUnLCAnPG91dGZpbGUubWFlPic=

>  <r_epik_Ionization_Penalty>
0.0191

>  <r_epik_Ionization_Penalty_Charging>
0.0191

>  <r_epik_Ionization_Penalty_Neutral>
0.0000

>  <r_epik_State_Penalty>
0.0153

>  <r_epik_Charging_Adjusted_Penalty>
0.0343718

>  <i_epik_Tot_Q>
1

>  <i_epik_Tot_abs_Q>
1

>  <s_epik_Chemistry_Notes>
This compound has an ester and may undergo hydrolysis at high or low pH.

>  <s_lp_Force_Field>
OPLS_2005

>  <r_lp_Energy>
27.7784

>  <b_lp_Chiralities_Consistent>
1

>  <s_lp_Variant>
BACE_134.smi:1-1

>  <chiral flag>
1

>  <version>
0

>  <s_i_glide_gridfile>
second_dock_grid_2

>  <i_i_glide_lignum>
275

>  <i_i_glide_rotatable_bonds>
9

>  <r_i_docking_score>
-3.66742

>  <r_i_glide_ligand_efficiency>
-0.0916856

>  <r_i_glide_ligand_efficiency_sa>
-0.31356

>  <r_i_glide_ligand_efficiency_ln>
-0.782153

>  <r_glide_XP_GScore>
-3.68272

>  <r_i_glide_gscore>
-3.68272

>  <r_i_glide_evdw>
-35.558

>  <r_i_glide_ecoul>
-11.49

>  <r_i_glide_energy>
-47.048

>  <r_i_glide_einternal>
2.03329

>  <r_i_glide_emodel>
-71.2105

>  <r_glide_XP_HBond>
-0.96

>  <i_i_glide_confnum>
1

>  <i_i_glide_posenum>
8

>  <r_i_glide_eff_state_penalty>
0.0153

>  <i_glide_XP_PoseRank>
1

$$$$
