BACE_58.smi:1
 OpenBabel09291822493D
Structure written by MMmdl.
 80 82  0  0  1  0  0  0  0  0999 V2000
   20.1723   39.4950  -11.0868 C   0  0  0  0  0  0  0  0  0  0  0  0
   20.9467   40.3579  -10.0709 C   0  0  2  0  0  0  0  0  0  0  0  0
   20.0119   40.9051   -8.9657 C   0  0  0  0  0  0  0  0  0  0  0  0
   19.3272   39.8759   -8.0359 C   0  0  0  0  0  0  0  0  0  0  0  0
   20.2444   38.9864   -7.1651 C   0  0  0  0  0  0  0  0  0  0  0  0
   21.4583   39.6803   -6.5215 C   0  0  0  0  0  0  0  0  0  0  0  0
   21.1544   40.9349   -5.6771 C   0  0  0  0  0  0  0  0  0  0  0  0
   22.3997   41.8284   -5.5398 C   0  0  0  0  0  0  0  0  0  0  0  0
   22.0734   43.2807   -5.1524 C   0  0  0  0  0  0  0  0  0  0  0  0
   23.2603   44.1286   -5.1415 N   0  0  0  0  0  0  0  0  0  0  0  0
   23.9640   44.4200   -6.3233 C   0  0  0  0  0  0  0  0  0  0  0  0
   23.3782   44.3748   -7.6121 C   0  0  0  0  0  0  0  0  0  0  0  0
   24.1470   44.6764   -8.7624 C   0  0  0  0  0  0  0  0  0  0  0  0
   25.4954   45.0693   -8.6113 C   0  0  0  0  0  0  0  0  0  0  0  0
   26.0846   45.1094   -7.3369 C   0  0  0  0  0  0  0  0  0  0  0  0
   25.3208   44.7829   -6.2019 C   0  0  0  0  0  0  0  0  0  0  0  0
   23.5608   44.6534  -10.1475 C   0  0  0  0  0  0  0  0  0  0  0  0
   23.6207   45.6647  -10.8404 O   0  0  0  0  0  0  0  0  0  0  0  0
   23.0510   43.5124  -10.6537 N   0  0  0  0  0  0  0  0  0  0  0  0
   22.8420   42.1969  -10.0433 C   0  0  1  0  0  0  0  0  0  0  0  0
   21.6602   41.5271  -10.8000 C   0  0  0  0  0  0  0  0  0  0  0  0
   24.1088   41.2797  -10.0349 C   0  0  2  0  0  0  0  0  0  0  0  0
   24.0601   40.5498   -8.8327 O   0  0  0  0  0  0  0  0  0  0  0  0
   25.5269   41.8956  -10.0650 C   0  0  0  0  0  0  0  0  0  0  0  0
   25.8464   42.5356  -11.3426 N   0  0  0  0  0  0  0  0  0  0  0  0
   27.0759   42.0566  -11.9661 C   0  0  0  0  0  0  0  0  0  0  0  0
   28.3279   42.4766  -11.2699 C   0  0  0  0  0  0  0  0  0  0  0  0
   28.7294   43.6684  -10.7373 C   0  0  0  0  0  0  0  0  0  0  0  0
   30.0478   43.4216  -10.2452 C   0  0  0  0  0  0  0  0  0  0  0  0
   30.4181   42.1560  -10.4407 N   0  0  0  0  0  0  0  0  0  0  0  0
   29.3731   41.6079  -11.0842 N   0  0  0  0  0  0  0  0  0  0  0  0
   31.0033   44.3926   -9.5701 C   0  0  0  0  0  0  0  0  0  0  0  0
   32.3275   44.4631  -10.3601 C   0  0  0  0  0  0  0  0  0  0  0  0
   31.2602   43.9560   -8.1160 C   0  0  0  0  0  0  0  0  0  0  0  0
   30.3966   45.8110   -9.5334 C   0  0  0  0  0  0  0  0  0  0  0  0
   21.7005   39.7142   -9.6204 H   0  0  0  0  0  0  0  0  0  0  0  0
   22.5188   42.3685   -9.0212 H   0  0  0  0  0  0  0  0  0  0  0  0
   24.0403   40.5497  -10.8394 H   0  0  0  0  0  0  0  0  0  0  0  0
   19.3735   40.0629  -11.5684 H   0  0  0  0  0  0  0  0  0  0  0  0
   19.7226   38.6242  -10.6102 H   0  0  0  0  0  0  0  0  0  0  0  0
   20.8341   39.1236  -11.8717 H   0  0  0  0  0  0  0  0  0  0  0  0
   20.5608   41.6155   -8.3538 H   0  0  0  0  0  0  0  0  0  0  0  0
   19.2272   41.4985   -9.4381 H   0  0  0  0  0  0  0  0  0  0  0  0
   18.6657   40.4287   -7.3668 H   0  0  0  0  0  0  0  0  0  0  0  0
   18.6619   39.2359   -8.6143 H   0  0  0  0  0  0  0  0  0  0  0  0
   19.6381   38.5208   -6.3855 H   0  0  0  0  0  0  0  0  0  0  0  0
   20.6130   38.1637   -7.7779 H   0  0  0  0  0  0  0  0  0  0  0  0
   22.0064   38.9627   -5.9120 H   0  0  0  0  0  0  0  0  0  0  0  0
   22.1375   39.9431   -7.3275 H   0  0  0  0  0  0  0  0  0  0  0  0
   20.3587   41.5181   -6.1361 H   0  0  0  0  0  0  0  0  0  0  0  0
   20.7735   40.6506   -4.6943 H   0  0  0  0  0  0  0  0  0  0  0  0
   23.0909   41.3896   -4.8211 H   0  0  0  0  0  0  0  0  0  0  0  0
   22.9251   41.8444   -6.4948 H   0  0  0  0  0  0  0  0  0  0  0  0
   21.3228   43.7032   -5.8219 H   0  0  0  0  0  0  0  0  0  0  0  0
   21.6328   43.2994   -4.1567 H   0  0  0  0  0  0  0  0  0  0  0  0
   23.8021   44.1483   -4.2832 H   0  0  0  0  0  0  0  0  0  0  0  0
   22.3340   44.1291   -7.7241 H   0  0  0  0  0  0  0  0  0  0  0  0
   26.0876   45.3127   -9.4824 H   0  0  0  0  0  0  0  0  0  0  0  0
   27.1200   45.3947   -7.2295 H   0  0  0  0  0  0  0  0  0  0  0  0
   25.7914   44.8193   -5.2319 H   0  0  0  0  0  0  0  0  0  0  0  0
   22.7375   43.5869  -11.6104 H   0  0  0  0  0  0  0  0  0  0  0  0
   22.0309   41.1858  -11.7690 H   0  0  0  0  0  0  0  0  0  0  0  0
   20.9043   42.2792  -11.0383 H   0  0  0  0  0  0  0  0  0  0  0  0
   24.4336   39.6904   -9.0048 H   0  0  0  0  0  0  0  0  0  0  0  0
   25.6626   42.5913   -9.2412 H   0  0  0  0  0  0  0  0  0  0  0  0
   26.2433   41.0990   -9.8679 H   0  0  0  0  0  0  0  0  0  0  0  0
   25.0744   42.3806  -11.9866 H   0  0  0  0  0  0  0  0  0  0  0  0
   27.0455   40.9696  -12.0409 H   0  0  0  0  0  0  0  0  0  0  0  0
   27.1206   42.4414  -12.9833 H   0  0  0  0  0  0  0  0  0  0  0  0
   28.1581   44.5856  -10.7164 H   0  0  0  0  0  0  0  0  0  0  0  0
   29.3594   40.6278  -11.3457 H   0  0  0  0  0  0  0  0  0  0  0  0
   33.0353   45.1441   -9.8883 H   0  0  0  0  0  0  0  0  0  0  0  0
   32.1609   44.8163  -11.3783 H   0  0  0  0  0  0  0  0  0  0  0  0
   32.8109   43.4887  -10.4309 H   0  0  0  0  0  0  0  0  0  0  0  0
   31.6667   42.9490   -8.0585 H   0  0  0  0  0  0  0  0  0  0  0  0
   30.3383   43.9716   -7.5372 H   0  0  0  0  0  0  0  0  0  0  0  0
   31.9669   44.6216   -7.6177 H   0  0  0  0  0  0  0  0  0  0  0  0
   31.0732   46.5192   -9.0532 H   0  0  0  0  0  0  0  0  0  0  0  0
   29.4600   45.8311   -8.9727 H   0  0  0  0  0  0  0  0  0  0  0  0
   30.1900   46.1862  -10.5358 H   0  0  0  0  0  0  0  0  0  0  0  0
  1  2  1  0  0  0  0
  1 39  1  0  0  0  0
  1 40  1  0  0  0  0
  1 41  1  0  0  0  0
  2 36  1  1  0  0  0
  2 21  1  0  0  0  0
  2  3  1  0  0  0  0
  3  4  1  0  0  0  0
  3 42  1  0  0  0  0
  3 43  1  0  0  0  0
  4  5  1  0  0  0  0
  4 44  1  0  0  0  0
  4 45  1  0  0  0  0
  5  6  1  0  0  0  0
  5 46  1  0  0  0  0
  5 47  1  0  0  0  0
  6  7  1  0  0  0  0
  6 48  1  0  0  0  0
  6 49  1  0  0  0  0
  7  8  1  0  0  0  0
  7 50  1  0  0  0  0
  7 51  1  0  0  0  0
  8  9  1  0  0  0  0
  8 52  1  0  0  0  0
  8 53  1  0  0  0  0
  9 10  1  0  0  0  0
  9 54  1  0  0  0  0
  9 55  1  0  0  0  0
 10 11  1  0  0  0  0
 10 56  1  0  0  0  0
 11 16  1  0  0  0  0
 11 12  2  0  0  0  0
 12 13  1  0  0  0  0
 12 57  1  0  0  0  0
 13 14  2  0  0  0  0
 13 17  1  0  0  0  0
 14 15  1  0  0  0  0
 14 58  1  0  0  0  0
 15 16  2  0  0  0  0
 15 59  1  0  0  0  0
 16 60  1  0  0  0  0
 17 18  2  0  0  0  0
 17 19  1  0  0  0  0
 19 20  1  0  0  0  0
 19 61  1  0  0  0  0
 20 37  1  1  0  0  0
 20 21  1  0  0  0  0
 20 22  1  0  0  0  0
 21 62  1  0  0  0  0
 21 63  1  0  0  0  0
 22 38  1  6  0  0  0
 22 23  1  0  0  0  0
 22 24  1  0  0  0  0
 23 64  1  0  0  0  0
 24 25  1  0  0  0  0
 24 65  1  0  0  0  0
 24 66  1  0  0  0  0
 25 26  1  0  0  0  0
 25 67  1  0  0  0  0
 26 68  1  0  0  0  0
 26 69  1  0  0  0  0
 26 27  1  0  0  0  0
 27 31  1  0  0  0  0
 27 28  2  0  0  0  0
 28 29  1  0  0  0  0
 28 70  1  0  0  0  0
 29 32  1  0  0  0  0
 29 30  2  0  0  0  0
 30 31  1  0  0  0  0
 31 71  1  0  0  0  0
 32 33  1  0  0  0  0
 32 34  1  0  0  0  0
 32 35  1  0  0  0  0
 33 72  1  0  0  0  0
 33 73  1  0  0  0  0
 33 74  1  0  0  0  0
 34 75  1  0  0  0  0
 34 76  1  0  0  0  0
 34 77  1  0  0  0  0
 35 78  1  0  0  0  0
 35 79  1  0  0  0  0
 35 80  1  0  0  0  0
M  END
>  <s_m_source_file>
BACE_58.smi

>  <i_m_source_file_index>
1

>  <i_lp_mmshare_version>
42013

>  <i_f3d_flags>
0

>  <s_epik_input>
W05IXTFbQ0gyXVtDSDJdW0NIMl1bQ0gyXVtDSDJdW0NIMl1bQ0gyXVtDQEBIXShbQ0gzXSlbQ0gyXVtDQEhdKFtOSF1DKD1PKWMoW2NIXWMxMilbY0hdW2NIXVtjSF0yKVtDQEhdKFtPSF0pW0NIMl1bTkhdW0NIMl1jM1tjSF1jKFtuSF1uMylDKFtDSDNdKShbQ0gzXSlbQ0gzXQ==

>  <s_epik_cmdline>
J2VwaWtfcHl0aG9uJywgJy1waCcsICc3LjAnLCAnLXRuJywgJzgnLCAnLW1hJywgJzIwMCcsICctaW1hZScsICc8aW5maWxlLm1hZT4nLCAnLW9tYWUnLCAnPG91dGZpbGUubWFlPic=

>  <r_lp_tautomer_probability>
0.5

>  <r_epik_Ionization_Penalty>
0.9815

>  <r_epik_Ionization_Penalty_Charging>
0.0000

>  <r_epik_Ionization_Penalty_Neutral>
0.9815

>  <r_epik_State_Penalty>
1.6017

>  <r_epik_Charging_Adjusted_Penalty>
1.60166

>  <i_epik_Tot_Q>
0

>  <i_epik_Tot_abs_Q>
0

>  <s_lp_Force_Field>
OPLS_2005

>  <r_lp_Energy>
37.5199

>  <b_lp_Chiralities_Consistent>
1

>  <s_lp_Variant>
BACE_58.smi:1-3

>  <chiral flag>
1

>  <version>
0

>  <s_i_glide_gridfile>
second_dock_grid_2

>  <i_i_glide_lignum>
114

>  <i_i_glide_rotatable_bonds>
7

>  <r_i_docking_score>
-3.53607

>  <r_i_glide_ligand_efficiency>
-0.101031

>  <r_i_glide_ligand_efficiency_sa>
-0.330478

>  <r_i_glide_ligand_efficiency_ln>
-0.776246

>  <r_glide_XP_GScore>
-5.13777

>  <r_i_glide_gscore>
-5.13777

>  <r_i_glide_evdw>
-32.2966

>  <r_i_glide_ecoul>
-13.0599

>  <r_i_glide_energy>
-45.3565

>  <r_i_glide_einternal>
3.18666

>  <r_i_glide_emodel>
-63.7044

>  <r_glide_XP_HBond>
-1.03979

>  <i_i_glide_confnum>
1

>  <i_i_glide_posenum>
6

>  <r_i_glide_eff_state_penalty>
1.6017

>  <i_glide_XP_PoseRank>
1

$$$$
