BACE_126.smi:1
 OpenBabel09291822493D
Structure written by MMmdl.
 62 64  0  0  1  0  0  0  0  0999 V2000
   17.6406   48.5296   -6.9458 C   0  0  0  0  0  0  0  0  0  0  0  0
   17.2606   47.9126   -8.1670 O   0  0  0  0  0  0  0  0  0  0  0  0
   18.2961   47.1778   -8.8111 C   0  0  0  0  0  0  0  0  0  0  0  0
   18.6055   45.8360   -8.1642 C   0  0  0  0  0  0  0  0  0  0  0  0
   19.4104   45.7791   -7.0098 C   0  0  0  0  0  0  0  0  0  0  0  0
   19.7218   44.5446   -6.4129 C   0  0  0  0  0  0  0  0  0  0  0  0
   19.2600   43.3500   -7.0119 C   0  0  0  0  0  0  0  0  0  0  0  0
   18.4648   43.3824   -8.1809 C   0  0  0  0  0  0  0  0  0  0  0  0
   18.1327   44.6377   -8.7419 C   0  0  0  0  0  0  0  0  0  0  0  0
   18.0299   42.1110   -8.8650 C   0  0  0  0  0  0  0  0  0  0  0  0
   17.6746   42.1268  -10.0441 O   0  0  0  0  0  0  0  0  0  0  0  0
   18.0243   40.9980   -8.1102 N   0  0  0  0  0  0  0  0  0  0  0  0
   17.6563   39.6500   -8.5709 C   0  0  1  0  0  0  0  0  0  0  0  0
   18.6061   38.5912   -7.9578 C   0  0  0  0  0  0  0  0  0  0  0  0
   20.0728   38.9788   -8.0228 C   0  0  0  0  0  0  0  0  0  0  0  0
   20.7225   39.0634   -9.2705 C   0  0  0  0  0  0  0  0  0  0  0  0
   22.0598   39.4912   -9.3354 C   0  0  0  0  0  0  0  0  0  0  0  0
   22.7427   39.8421   -8.1564 C   0  0  0  0  0  0  0  0  0  0  0  0
   22.1121   39.7512   -6.8997 C   0  0  0  0  0  0  0  0  0  0  0  0
   20.7751   39.2922   -6.8401 C   0  0  0  0  0  0  0  0  0  0  0  0
   22.8599   40.1500   -5.8133 O   0  0  0  0  0  0  0  0  0  0  0  0
   22.3771   39.9880   -4.4827 C   0  0  0  0  0  0  0  0  0  0  0  0
   21.3072   41.0239   -4.0878 C   0  0  0  0  0  0  0  0  0  0  0  0
   21.5901   42.4223   -4.6510 C   0  0  0  0  0  0  0  0  0  0  0  0
   20.4630   43.4115   -4.3381 C   0  0  0  0  0  0  0  0  0  0  0  0
   20.4895   44.5533   -5.2400 N   0  0  0  0  0  0  0  0  0  0  0  0
   16.1798   39.3127   -8.2378 C   0  0  2  0  0  0  0  0  0  0  0  0
   15.3690   39.6688   -9.3449 O   0  0  0  0  0  0  0  0  0  0  0  0
   15.6644   39.9956   -6.9576 C   0  0  0  0  0  0  0  0  0  0  0  0
   14.4600   39.3500   -6.4400 N   0  3  0  0  0  0  0  0  0  0  0  0
   17.8035   39.5931   -9.6519 H   0  0  0  0  0  0  0  0  0  0  0  0
   16.0913   38.2295   -8.1296 H   0  0  0  0  0  0  0  0  0  0  0  0
   16.8596   49.2203   -6.6311 H   0  0  0  0  0  0  0  0  0  0  0  0
   18.5627   49.1024   -7.0503 H   0  0  0  0  0  0  0  0  0  0  0  0
   17.7649   47.7971   -6.1491 H   0  0  0  0  0  0  0  0  0  0  0  0
   19.2068   47.7753   -8.8773 H   0  0  0  0  0  0  0  0  0  0  0  0
   17.9805   47.0030   -9.8401 H   0  0  0  0  0  0  0  0  0  0  0  0
   19.7900   46.6927   -6.5772 H   0  0  0  0  0  0  0  0  0  0  0  0
   19.5315   42.3991   -6.5797 H   0  0  0  0  0  0  0  0  0  0  0  0
   17.5332   44.6825   -9.6400 H   0  0  0  0  0  0  0  0  0  0  0  0
   18.2965   41.0900   -7.1401 H   0  0  0  0  0  0  0  0  0  0  0  0
   18.3358   38.4117   -6.9158 H   0  0  0  0  0  0  0  0  0  0  0  0
   18.4762   37.6349   -8.4665 H   0  0  0  0  0  0  0  0  0  0  0  0
   20.1938   38.8176  -10.1801 H   0  0  0  0  0  0  0  0  0  0  0  0
   22.5624   39.5620  -10.2891 H   0  0  0  0  0  0  0  0  0  0  0  0
   23.7664   40.1816   -8.2188 H   0  0  0  0  0  0  0  0  0  0  0  0
   20.2605   39.1945   -5.8998 H   0  0  0  0  0  0  0  0  0  0  0  0
   22.0445   38.9654   -4.3091 H   0  0  0  0  0  0  0  0  0  0  0  0
   23.2412   40.1245   -3.8318 H   0  0  0  0  0  0  0  0  0  0  0  0
   20.3241   40.7054   -4.4284 H   0  0  0  0  0  0  0  0  0  0  0  0
   21.2335   41.0674   -3.0007 H   0  0  0  0  0  0  0  0  0  0  0  0
   22.5390   42.8029   -4.2709 H   0  0  0  0  0  0  0  0  0  0  0  0
   21.7072   42.3508   -5.7323 H   0  0  0  0  0  0  0  0  0  0  0  0
   19.4841   42.9409   -4.3947 H   0  0  0  0  0  0  0  0  0  0  0  0
   20.5555   43.7500   -3.3072 H   0  0  0  0  0  0  0  0  0  0  0  0
   20.8573   45.4212   -4.8783 H   0  0  0  0  0  0  0  0  0  0  0  0
   14.4937   39.3309   -9.2297 H   0  0  0  0  0  0  0  0  0  0  0  0
   16.4090   39.9215   -6.1664 H   0  0  0  0  0  0  0  0  0  0  0  0
   15.4667   41.0566   -7.1207 H   0  0  0  0  0  0  0  0  0  0  0  0
   14.0602   39.9690   -5.7348 H   0  0  0  0  0  0  0  0  0  0  0  0
   13.7754   39.1783   -7.1602 H   0  0  0  0  0  0  0  0  0  0  0  0
   14.7115   38.4892   -5.9452 H   0  0  0  0  0  0  0  0  0  0  0  0
  1  2  1  0  0  0  0
  1 33  1  0  0  0  0
  1 34  1  0  0  0  0
  1 35  1  0  0  0  0
  2  3  1  0  0  0  0
  3  4  1  0  0  0  0
  3 36  1  0  0  0  0
  3 37  1  0  0  0  0
  4  9  1  0  0  0  0
  4  5  2  0  0  0  0
  5  6  1  0  0  0  0
  5 38  1  0  0  0  0
  6 26  1  0  0  0  0
  6  7  2  0  0  0  0
  7  8  1  0  0  0  0
  7 39  1  0  0  0  0
  8  9  2  0  0  0  0
  8 10  1  0  0  0  0
  9 40  1  0  0  0  0
 10 11  2  0  0  0  0
 10 12  1  0  0  0  0
 12 13  1  0  0  0  0
 12 41  1  0  0  0  0
 13 31  1  6  0  0  0
 13 14  1  0  0  0  0
 13 27  1  0  0  0  0
 14 15  1  0  0  0  0
 14 42  1  0  0  0  0
 14 43  1  0  0  0  0
 15 20  1  0  0  0  0
 15 16  2  0  0  0  0
 16 17  1  0  0  0  0
 16 44  1  0  0  0  0
 17 18  2  0  0  0  0
 17 45  1  0  0  0  0
 18 19  1  0  0  0  0
 18 46  1  0  0  0  0
 19 20  2  0  0  0  0
 19 21  1  0  0  0  0
 20 47  1  0  0  0  0
 21 22  1  0  0  0  0
 22 23  1  0  0  0  0
 22 48  1  0  0  0  0
 22 49  1  0  0  0  0
 23 24  1  0  0  0  0
 23 50  1  0  0  0  0
 23 51  1  0  0  0  0
 24 25  1  0  0  0  0
 24 52  1  0  0  0  0
 24 53  1  0  0  0  0
 25 26  1  0  0  0  0
 25 54  1  0  0  0  0
 25 55  1  0  0  0  0
 26 56  1  0  0  0  0
 27 32  1  1  0  0  0
 27 28  1  0  0  0  0
 27 29  1  0  0  0  0
 28 57  1  0  0  0  0
 29 30  1  0  0  0  0
 29 58  1  0  0  0  0
 29 59  1  0  0  0  0
 30 60  1  0  0  0  0
 30 61  1  0  0  0  0
 30 62  1  0  0  0  0
M  CHG  1  30   1
M  END
>  <s_m_source_file>
BACE_126.smi

>  <i_m_source_file_index>
1

>  <i_lp_mmshare_version>
42013

>  <i_f3d_flags>
0

>  <s_epik_input>
W0NIM11PW0NIMl1jKFtjSF1jMTIpW2NIXWMoW2NIXTEpQyg9TylbTkhdW0NASF0oW0NASF0oW09IXSlbQ0gyXVtOSDJdKVtDSDJdYzNbY0hdW2NIXVtjSF1jKFtjSF0zKU9bQ0gyXVtDSDJdW0NIMl1bQ0gyXVtOSF0y

>  <s_epik_cmdline>
J2VwaWtfcHl0aG9uJywgJy1waCcsICc3LjAnLCAnLXRuJywgJzgnLCAnLW1hJywgJzIwMCcsICctaW1hZScsICc8aW5maWxlLm1hZT4nLCAnLW9tYWUnLCAnPG91dGZpbGUubWFlPic=

>  <r_lp_tautomer_probability>
1

>  <r_epik_Ionization_Penalty>
0.0125

>  <r_epik_Ionization_Penalty_Charging>
0.0122

>  <r_epik_Ionization_Penalty_Neutral>
0.0003

>  <r_epik_State_Penalty>
0.0094

>  <r_epik_Charging_Adjusted_Penalty>
0.0215847

>  <i_epik_Tot_Q>
1

>  <i_epik_Tot_abs_Q>
1

>  <s_lp_Force_Field>
OPLS_2005

>  <r_lp_Energy>
30.3209

>  <b_lp_Chiralities_Consistent>
1

>  <s_lp_Variant>
BACE_126.smi:1-1

>  <chiral flag>
1

>  <version>
0

>  <s_i_glide_gridfile>
second_dock_grid_2

>  <i_i_glide_lignum>
258

>  <i_i_glide_rotatable_bonds>
5

>  <r_i_docking_score>
-8.35114

>  <r_i_glide_ligand_efficiency>
-0.278371

>  <r_i_glide_ligand_efficiency_sa>
-0.864965

>  <r_i_glide_ligand_efficiency_ln>
-1.89747

>  <r_glide_XP_GScore>
-8.36054

>  <r_i_glide_gscore>
-8.36054

>  <r_i_glide_evdw>
-34.4934

>  <r_i_glide_ecoul>
-18.2384

>  <r_i_glide_energy>
-52.7318

>  <r_i_glide_einternal>
2.22552

>  <r_i_glide_emodel>
-75.8801

>  <r_glide_XP_HBond>
-2.87345

>  <i_i_glide_confnum>
1

>  <i_i_glide_posenum>
48

>  <r_i_glide_eff_state_penalty>
0.0094

>  <i_glide_XP_PoseRank>
1

$$$$
