BACE_77.smi:1
 OpenBabel09291822493D
Structure written by MMmdl.
 88 91  0  0  1  0  0  0  0  0999 V2000
   21.5519   50.2182   -5.1902 C   0  0  0  0  0  0  0  0  0  0  0  0
   21.2820   50.7954   -6.4569 O   0  0  0  0  0  0  0  0  0  0  0  0
   21.4042   49.8689   -7.5245 C   0  0  0  0  0  0  0  0  0  0  0  0
   20.0965   49.1425   -7.7805 C   0  0  0  0  0  0  0  0  0  0  0  0
   19.0885   49.7515   -8.5560 C   0  0  0  0  0  0  0  0  0  0  0  0
   17.8684   49.0781   -8.7938 C   0  0  0  0  0  0  0  0  0  0  0  0
   17.6532   47.8096   -8.2138 C   0  0  0  0  0  0  0  0  0  0  0  0
   18.6701   47.1686   -7.4705 C   0  0  0  0  0  0  0  0  0  0  0  0
   19.8849   47.8548   -7.2447 C   0  0  0  0  0  0  0  0  0  0  0  0
   18.4523   45.8240   -6.8267 C   0  0  0  0  0  0  0  0  0  0  0  0
   18.7171   45.6916   -5.6325 O   0  0  0  0  0  0  0  0  0  0  0  0
   18.0057   44.7673   -7.5413 N   0  0  0  0  0  0  0  0  0  0  0  0
   17.7040   44.5688   -8.9677 C   0  0  1  0  0  0  0  0  0  0  0  0
   18.8055   43.6406   -9.5700 C   0  0  0  0  0  0  0  0  0  0  0  0
   18.6730   43.2005  -11.0329 C   0  0  0  0  0  0  0  0  0  0  0  0
   18.3159   41.7331  -11.2259 C   0  0  0  0  0  0  0  0  0  0  0  0
   18.9469   43.9704  -12.1097 C   0  0  0  0  0  0  0  0  0  0  0  0
   19.3788   45.4244  -12.1484 C   0  0  0  0  0  0  0  0  0  0  0  0
   18.6078   46.1394  -13.1090 O   0  0  0  0  0  0  0  0  0  0  0  0
   18.8186   47.5458  -13.0933 C   0  0  0  0  0  0  0  0  0  0  0  0
   17.7646   48.2290  -12.2040 C   0  0  0  0  0  0  0  0  0  0  0  0
   18.1661   49.6579  -11.7883 C   0  0  0  0  0  0  0  0  0  0  0  0
   17.1860   50.3621  -10.8177 C   0  0  0  0  0  0  0  0  0  0  0  0
   16.8553   49.6084   -9.6080 N   0  0  0  0  0  0  0  0  0  0  0  0
   16.2141   44.1148   -9.0628 C   0  0  2  0  0  0  0  0  0  0  0  0
   15.4300   44.7667   -8.0811 O   0  0  0  0  0  0  0  0  0  0  0  0
   15.9839   42.5906   -8.9589 C   0  0  0  0  0  0  0  0  0  0  0  0
   16.4301   42.0698   -7.6459 N   0  3  0  0  0  0  0  0  0  0  0  0
   16.2993   40.6179   -7.4494 C   0  0  0  0  0  0  0  0  0  0  0  0
   15.6892   40.1397   -6.1535 C   0  0  0  0  0  0  0  0  0  0  0  0
   14.9058   40.0361   -7.4402 C   0  0  0  0  0  0  0  0  0  0  0  0
   17.4109   39.7752   -8.0582 C   0  0  0  0  0  0  0  0  0  0  0  0
   18.7636   40.1358   -7.8657 C   0  0  0  0  0  0  0  0  0  0  0  0
   19.8115   39.3639   -8.4198 C   0  0  0  0  0  0  0  0  0  0  0  0
   19.4918   38.2153   -9.1764 C   0  0  0  0  0  0  0  0  0  0  0  0
   18.1479   37.8470   -9.3745 C   0  0  0  0  0  0  0  0  0  0  0  0
   17.1135   38.6230   -8.8184 C   0  0  0  0  0  0  0  0  0  0  0  0
   21.2733   39.7555   -8.2107 C   0  0  0  0  0  0  0  0  0  0  0  0
   21.9179   38.9834   -7.0458 C   0  0  0  0  0  0  0  0  0  0  0  0
   22.0960   39.6319   -9.5054 C   0  0  0  0  0  0  0  0  0  0  0  0
   17.7789   45.5204   -9.4835 H   0  0  0  0  0  0  0  0  0  0  0  0
   15.8306   44.4243  -10.0371 H   0  0  0  0  0  0  0  0  0  0  0  0
   21.4424   50.9756   -4.4140 H   0  0  0  0  0  0  0  0  0  0  0  0
   22.5706   49.8316   -5.1379 H   0  0  0  0  0  0  0  0  0  0  0  0
   20.8571   49.4076   -4.9660 H   0  0  0  0  0  0  0  0  0  0  0  0
   22.1826   49.1379   -7.2990 H   0  0  0  0  0  0  0  0  0  0  0  0
   21.7114   50.3855   -8.4355 H   0  0  0  0  0  0  0  0  0  0  0  0
   19.2607   50.7349   -8.9688 H   0  0  0  0  0  0  0  0  0  0  0  0
   16.7021   47.3191   -8.3652 H   0  0  0  0  0  0  0  0  0  0  0  0
   20.6633   47.3949   -6.6521 H   0  0  0  0  0  0  0  0  0  0  0  0
   17.8914   43.9253   -6.9953 H   0  0  0  0  0  0  0  0  0  0  0  0
   19.7710   44.1385   -9.4703 H   0  0  0  0  0  0  0  0  0  0  0  0
   18.9015   42.7454   -8.9533 H   0  0  0  0  0  0  0  0  0  0  0  0
   18.2237   41.4725  -12.2808 H   0  0  0  0  0  0  0  0  0  0  0  0
   17.3702   41.4871  -10.7463 H   0  0  0  0  0  0  0  0  0  0  0  0
   19.0902   41.0964  -10.7966 H   0  0  0  0  0  0  0  0  0  0  0  0
   18.8718   43.5203  -13.0892 H   0  0  0  0  0  0  0  0  0  0  0  0
   20.4295   45.4578  -12.4400 H   0  0  0  0  0  0  0  0  0  0  0  0
   19.3070   45.8833  -11.1644 H   0  0  0  0  0  0  0  0  0  0  0  0
   19.8351   47.7833  -12.7738 H   0  0  0  0  0  0  0  0  0  0  0  0
   18.7242   47.9208  -14.1128 H   0  0  0  0  0  0  0  0  0  0  0  0
   16.8022   48.2395  -12.7170 H   0  0  0  0  0  0  0  0  0  0  0  0
   17.6207   47.6208  -11.3133 H   0  0  0  0  0  0  0  0  0  0  0  0
   18.2623   50.2724  -12.6841 H   0  0  0  0  0  0  0  0  0  0  0  0
   19.1630   49.6362  -11.3491 H   0  0  0  0  0  0  0  0  0  0  0  0
   17.5759   51.3408  -10.5369 H   0  0  0  0  0  0  0  0  0  0  0  0
   16.2488   50.5540  -11.3407 H   0  0  0  0  0  0  0  0  0  0  0  0
   16.0136   49.0543   -9.6756 H   0  0  0  0  0  0  0  0  0  0  0  0
   15.3628   44.2012   -7.3270 H   0  0  0  0  0  0  0  0  0  0  0  0
   16.5006   42.0607   -9.7572 H   0  0  0  0  0  0  0  0  0  0  0  0
   14.9207   42.3719   -9.0632 H   0  0  0  0  0  0  0  0  0  0  0  0
   15.8823   42.5271   -6.9311 H   0  0  0  0  0  0  0  0  0  0  0  0
   16.0774   39.2166   -5.7231 H   0  0  0  0  0  0  0  0  0  0  0  0
   15.3782   40.8959   -5.4327 H   0  0  0  0  0  0  0  0  0  0  0  0
   14.0711   40.7231   -7.5798 H   0  0  0  0  0  0  0  0  0  0  0  0
   14.7703   39.0437   -7.8702 H   0  0  0  0  0  0  0  0  0  0  0  0
   18.9944   41.0171   -7.2851 H   0  0  0  0  0  0  0  0  0  0  0  0
   20.2726   37.6080   -9.6106 H   0  0  0  0  0  0  0  0  0  0  0  0
   17.9099   36.9675   -9.9546 H   0  0  0  0  0  0  0  0  0  0  0  0
   16.0869   38.3282   -8.9802 H   0  0  0  0  0  0  0  0  0  0  0  0
   21.2930   40.8097   -7.9313 H   0  0  0  0  0  0  0  0  0  0  0  0
   21.3595   39.1311   -6.1207 H   0  0  0  0  0  0  0  0  0  0  0  0
   22.9378   39.3252   -6.8665 H   0  0  0  0  0  0  0  0  0  0  0  0
   21.9626   37.9114   -7.2398 H   0  0  0  0  0  0  0  0  0  0  0  0
   21.6625   40.2342  -10.3046 H   0  0  0  0  0  0  0  0  0  0  0  0
   22.1522   38.6018   -9.8583 H   0  0  0  0  0  0  0  0  0  0  0  0
   23.1180   39.9812   -9.3546 H   0  0  0  0  0  0  0  0  0  0  0  0
   17.3988   42.3235   -7.5144 H   0  0  0  0  0  0  0  0  0  0  0  0
  1  2  1  0  0  0  0
  1 43  1  0  0  0  0
  1 44  1  0  0  0  0
  1 45  1  0  0  0  0
  2  3  1  0  0  0  0
  3  4  1  0  0  0  0
  3 46  1  0  0  0  0
  3 47  1  0  0  0  0
  4  9  1  0  0  0  0
  4  5  2  0  0  0  0
  5  6  1  0  0  0  0
  5 48  1  0  0  0  0
  6 24  1  0  0  0  0
  6  7  2  0  0  0  0
  7  8  1  0  0  0  0
  7 49  1  0  0  0  0
  8  9  2  0  0  0  0
  8 10  1  0  0  0  0
  9 50  1  0  0  0  0
 10 11  2  0  0  0  0
 10 12  1  0  0  0  0
 12 13  1  0  0  0  0
 12 51  1  0  0  0  0
 13 41  1  6  0  0  0
 13 14  1  0  0  0  0
 13 25  1  0  0  0  0
 14 15  1  0  0  0  0
 14 52  1  0  0  0  0
 14 53  1  0  0  0  0
 15 16  1  0  0  0  0
 15 17  2  0  0  0  0
 16 54  1  0  0  0  0
 16 55  1  0  0  0  0
 16 56  1  0  0  0  0
 17 18  1  0  0  0  0
 17 57  1  0  0  0  0
 18 19  1  0  0  0  0
 18 58  1  0  0  0  0
 18 59  1  0  0  0  0
 19 20  1  0  0  0  0
 20 21  1  0  0  0  0
 20 60  1  0  0  0  0
 20 61  1  0  0  0  0
 21 22  1  0  0  0  0
 21 62  1  0  0  0  0
 21 63  1  0  0  0  0
 22 23  1  0  0  0  0
 22 64  1  0  0  0  0
 22 65  1  0  0  0  0
 23 24  1  0  0  0  0
 23 66  1  0  0  0  0
 23 67  1  0  0  0  0
 24 68  1  0  0  0  0
 25 42  1  6  0  0  0
 25 26  1  0  0  0  0
 25 27  1  0  0  0  0
 26 69  1  0  0  0  0
 27 28  1  0  0  0  0
 27 70  1  0  0  0  0
 27 71  1  0  0  0  0
 28 29  1  0  0  0  0
 28 72  1  0  0  0  0
 28 88  1  0  0  0  0
 29 31  1  0  0  0  0
 29 30  1  0  0  0  0
 29 32  1  0  0  0  0
 30 31  1  0  0  0  0
 30 73  1  0  0  0  0
 30 74  1  0  0  0  0
 31 75  1  0  0  0  0
 31 76  1  0  0  0  0
 32 37  1  0  0  0  0
 32 33  2  0  0  0  0
 33 34  1  0  0  0  0
 33 77  1  0  0  0  0
 34 35  2  0  0  0  0
 34 38  1  0  0  0  0
 35 36  1  0  0  0  0
 35 78  1  0  0  0  0
 36 37  2  0  0  0  0
 36 79  1  0  0  0  0
 37 80  1  0  0  0  0
 38 39  1  0  0  0  0
 38 40  1  0  0  0  0
 38 81  1  0  0  0  0
 39 82  1  0  0  0  0
 39 83  1  0  0  0  0
 39 84  1  0  0  0  0
 40 85  1  0  0  0  0
 40 86  1  0  0  0  0
 40 87  1  0  0  0  0
M  CHG  1  28   1
M  END
>  <s_m_source_file>
BACE_77.smi

>  <i_m_source_file_index>
1

>  <i_lp_mmshare_version>
42013

>  <i_f3d_flags>
0

>  <s_epik_input>
W2NIXTFbY0hdW2NIXWMoW0NIXShbQ0gzXSlbQ0gzXSlbY0hdYzFDMihbQ0gyXVtDSDJdMilbTkhdW0NIMl1bQ0BASF0oW09IXSlbQ0BASF0oW05IXUMoPU8pYyhbY0hdMylbY0hdYyhbY0hdYzM0KVtDSDJdT1tDSDNdKVtDSDJdL0MoW0NIM10pPVtDSF1cW0NIMl1PW0NIMl1bQ0gyXVtDSDJdW0NIMl1bTkhdNA==

>  <s_epik_cmdline>
J2VwaWtfcHl0aG9uJywgJy1waCcsICc3LjAnLCAnLXRuJywgJzgnLCAnLW1hJywgJzIwMCcsICctaW1hZScsICc8aW5maWxlLm1hZT4nLCAnLW9tYWUnLCAnPG91dGZpbGUubWFlPic=

>  <r_epik_Ionization_Penalty>
0.5056

>  <r_epik_Ionization_Penalty_Charging>
0.5053

>  <r_epik_Ionization_Penalty_Neutral>
0.0004

>  <r_epik_State_Penalty>
0.5121

>  <r_epik_Charging_Adjusted_Penalty>
1.01737

>  <i_epik_Tot_Q>
1

>  <i_epik_Tot_abs_Q>
1

>  <s_lp_Force_Field>
OPLS_2005

>  <r_lp_Energy>
40.7027

>  <b_lp_Chiralities_Consistent>
1

>  <s_lp_Variant>
BACE_77.smi:1-2

>  <chiral flag>
1

>  <version>
0

>  <s_i_glide_gridfile>
second_dock_grid_2

>  <i_i_glide_lignum>
155

>  <i_i_glide_rotatable_bonds>
9

>  <r_i_docking_score>
-4.84347

>  <r_i_glide_ligand_efficiency>
-0.121087

>  <r_i_glide_ligand_efficiency_sa>
-0.414111

>  <r_i_glide_ligand_efficiency_ln>
-1.03297

>  <r_glide_XP_GScore>
-5.35557

>  <r_i_glide_gscore>
-5.35557

>  <r_i_glide_evdw>
-30.1003

>  <r_i_glide_ecoul>
-20.8049

>  <r_i_glide_energy>
-50.9051

>  <r_i_glide_einternal>
4.41771

>  <r_i_glide_emodel>
-78.7652

>  <r_glide_XP_HBond>
-1.21716

>  <i_i_glide_confnum>
1

>  <i_i_glide_posenum>
9

>  <r_i_glide_eff_state_penalty>
0.5121

>  <i_glide_XP_PoseRank>
1

$$$$
