BACE_34.smi:1
 OpenBabel09291822493D
Structure written by MMmdl.
 79 80  0  0  1  0  0  0  0  0999 V2000
   15.4490   39.9557   -7.0671 C   0  0  0  0  0  0  0  0  0  0  0  0
   15.4188   39.2241   -8.4200 C   0  0  0  0  0  0  0  0  0  0  0  0
   14.0540   39.3502   -9.1044 C   0  0  0  0  0  0  0  0  0  0  0  0
   16.5442   39.6860   -9.3358 C   0  0  0  0  0  0  0  0  0  0  0  0
   16.4906   40.9427   -9.9816 C   0  0  0  0  0  0  0  0  0  0  0  0
   17.5652   41.3789  -10.7802 C   0  0  0  0  0  0  0  0  0  0  0  0
   18.7138   40.5783  -10.9125 C   0  0  0  0  0  0  0  0  0  0  0  0
   18.7788   39.3288  -10.2646 C   0  0  0  0  0  0  0  0  0  0  0  0
   20.0618   38.5272  -10.2954 C   0  0  0  0  0  0  0  0  0  0  0  0
   21.0926   39.0444   -9.3880 N   0  0  0  0  0  0  0  0  0  0  0  0
   20.8657   38.8028   -7.9545 C   0  0  0  0  0  0  0  0  0  0  0  0
   20.0079   39.8884   -7.2605 C   0  0  1  0  0  0  0  0  0  0  0  0
   19.5513   39.3499   -6.0399 O   0  0  0  0  0  0  0  0  0  0  0  0
   20.7513   41.2194   -6.9927 C   0  0  2  0  0  0  0  0  0  0  0  0
   21.7215   41.1896   -5.7756 C   0  0  0  0  0  0  0  0  0  0  0  0
   22.4609   42.5017   -5.4086 C   0  0  2  0  0  0  0  0  0  0  0  0
   21.5883   43.4340   -4.5427 C   0  0  0  0  0  0  0  0  0  0  0  0
   23.0935   43.1991   -6.6352 C   0  0  0  0  0  0  0  0  0  0  0  0
   24.0454   44.3682   -6.3050 C   0  0  0  0  0  0  0  0  0  0  0  0
   23.6428   45.7032   -6.9592 C   0  0  0  0  0  0  0  0  0  0  0  0
   22.3363   46.2970   -6.4033 C   0  0  0  0  0  0  0  0  0  0  0  0
   21.9351   47.6089   -7.0971 C   0  0  0  0  0  0  0  0  0  0  0  0
   20.7845   48.2059   -6.5037 O   0  0  0  0  0  0  0  0  0  0  0  0
   19.5369   47.9469   -7.1483 C   0  0  0  0  0  0  0  0  0  0  0  0
   19.0286   46.5268   -6.8297 C   0  0  0  0  0  0  0  0  0  0  0  0
   18.8601   46.2576   -5.6401 O   0  0  0  0  0  0  0  0  0  0  0  0
   18.8141   45.6220   -7.8220 N   0  0  0  0  0  0  0  0  0  0  0  0
   19.0164   45.9717   -9.2364 C   0  0  0  0  0  0  0  0  0  0  0  0
   18.3942   44.2329   -7.5069 C   0  0  1  0  0  0  0  0  0  0  0  0
   17.0227   43.9154   -8.1299 C   0  0  0  0  0  0  0  0  0  0  0  0
   19.4604   43.1786   -7.8549 C   0  0  0  0  0  0  0  0  0  0  0  0
   20.0029   43.1683   -8.9609 O   0  0  0  0  0  0  0  0  0  0  0  0
   19.7549   42.2884   -6.8931 N   0  0  0  0  0  0  0  0  0  0  0  0
   17.6781   38.8665   -9.5142 C   0  0  0  0  0  0  0  0  0  0  0  0
   19.1162   40.1002   -7.8385 H   0  0  0  0  0  0  0  0  0  0  0  0
   21.3671   41.4096   -7.8732 H   0  0  0  0  0  0  0  0  0  0  0  0
   23.2858   42.1972   -4.7613 H   0  0  0  0  0  0  0  0  0  0  0  0
   18.2251   44.1271   -6.4401 H   0  0  0  0  0  0  0  0  0  0  0  0
   16.4059   39.8081   -6.5663 H   0  0  0  0  0  0  0  0  0  0  0  0
   14.6759   39.5752   -6.3963 H   0  0  0  0  0  0  0  0  0  0  0  0
   15.2877   41.0292   -7.1761 H   0  0  0  0  0  0  0  0  0  0  0  0
   15.5727   38.1632   -8.2092 H   0  0  0  0  0  0  0  0  0  0  0  0
   14.0519   38.7983  -10.0400 H   0  0  0  0  0  0  0  0  0  0  0  0
   13.7923   40.3842   -9.3283 H   0  0  0  0  0  0  0  0  0  0  0  0
   13.2603   38.9500   -8.4755 H   0  0  0  0  0  0  0  0  0  0  0  0
   15.6353   41.5870   -9.8501 H   0  0  0  0  0  0  0  0  0  0  0  0
   17.5259   42.3465  -11.2582 H   0  0  0  0  0  0  0  0  0  0  0  0
   19.5568   40.9398  -11.4822 H   0  0  0  0  0  0  0  0  0  0  0  0
   20.4358   38.5518  -11.3189 H   0  0  0  0  0  0  0  0  0  0  0  0
   19.8475   37.4817  -10.0749 H   0  0  0  0  0  0  0  0  0  0  0  0
   21.2015   40.0415   -9.5461 H   0  0  0  0  0  0  0  0  0  0  0  0
   21.8272   38.7346   -7.4462 H   0  0  0  0  0  0  0  0  0  0  0  0
   20.4005   37.8259   -7.8214 H   0  0  0  0  0  0  0  0  0  0  0  0
   18.9277   39.9586   -5.6590 H   0  0  0  0  0  0  0  0  0  0  0  0
   21.2011   40.8373   -4.8844 H   0  0  0  0  0  0  0  0  0  0  0  0
   22.4760   40.4289   -5.9776 H   0  0  0  0  0  0  0  0  0  0  0  0
   22.1762   44.2472   -4.1210 H   0  0  0  0  0  0  0  0  0  0  0  0
   21.1539   42.8969   -3.6995 H   0  0  0  0  0  0  0  0  0  0  0  0
   20.7682   43.8824   -5.0998 H   0  0  0  0  0  0  0  0  0  0  0  0
   23.6547   42.4582   -7.2055 H   0  0  0  0  0  0  0  0  0  0  0  0
   22.3128   43.5393   -7.3138 H   0  0  0  0  0  0  0  0  0  0  0  0
   25.0446   44.1029   -6.6525 H   0  0  0  0  0  0  0  0  0  0  0  0
   24.1546   44.5031   -5.2299 H   0  0  0  0  0  0  0  0  0  0  0  0
   23.5555   45.5639   -8.0379 H   0  0  0  0  0  0  0  0  0  0  0  0
   24.4480   46.4236   -6.8100 H   0  0  0  0  0  0  0  0  0  0  0  0
   21.5408   45.5672   -6.5231 H   0  0  0  0  0  0  0  0  0  0  0  0
   22.4389   46.4679   -5.3309 H   0  0  0  0  0  0  0  0  0  0  0  0
   22.7540   48.3207   -6.9873 H   0  0  0  0  0  0  0  0  0  0  0  0
   21.8043   47.4633   -8.1694 H   0  0  0  0  0  0  0  0  0  0  0  0
   18.8103   48.6462   -6.7347 H   0  0  0  0  0  0  0  0  0  0  0  0
   19.6070   48.1900   -8.2058 H   0  0  0  0  0  0  0  0  0  0  0  0
   18.7569   45.1624   -9.9162 H   0  0  0  0  0  0  0  0  0  0  0  0
   20.0615   46.2190   -9.4252 H   0  0  0  0  0  0  0  0  0  0  0  0
   18.3972   46.8222   -9.5226 H   0  0  0  0  0  0  0  0  0  0  0  0
   16.6693   42.9372   -7.8008 H   0  0  0  0  0  0  0  0  0  0  0  0
   17.0478   43.9012   -9.2186 H   0  0  0  0  0  0  0  0  0  0  0  0
   16.2737   44.6440   -7.8191 H   0  0  0  0  0  0  0  0  0  0  0  0
   19.1983   42.3044   -6.0470 H   0  0  0  0  0  0  0  0  0  0  0  0
   17.7395   37.9166   -9.0028 H   0  0  0  0  0  0  0  0  0  0  0  0
  1  2  1  0  0  0  0
  1 39  1  0  0  0  0
  1 40  1  0  0  0  0
  1 41  1  0  0  0  0
  2  3  1  0  0  0  0
  2  4  1  0  0  0  0
  2 42  1  0  0  0  0
  3 43  1  0  0  0  0
  3 44  1  0  0  0  0
  3 45  1  0  0  0  0
  4 34  1  0  0  0  0
  4  5  2  0  0  0  0
  5  6  1  0  0  0  0
  5 46  1  0  0  0  0
  6  7  2  0  0  0  0
  6 47  1  0  0  0  0
  7  8  1  0  0  0  0
  7 48  1  0  0  0  0
  8  9  1  0  0  0  0
  8 34  2  0  0  0  0
  9 10  1  0  0  0  0
  9 49  1  0  0  0  0
  9 50  1  0  0  0  0
 10 11  1  0  0  0  0
 10 51  1  0  0  0  0
 11 12  1  0  0  0  0
 11 52  1  0  0  0  0
 11 53  1  0  0  0  0
 12 35  1  6  0  0  0
 12 13  1  0  0  0  0
 12 14  1  0  0  0  0
 13 54  1  0  0  0  0
 14 36  1  6  0  0  0
 14 33  1  0  0  0  0
 14 15  1  0  0  0  0
 15 16  1  0  0  0  0
 15 55  1  0  0  0  0
 15 56  1  0  0  0  0
 16 37  1  1  0  0  0
 16 17  1  0  0  0  0
 16 18  1  0  0  0  0
 17 57  1  0  0  0  0
 17 58  1  0  0  0  0
 17 59  1  0  0  0  0
 18 19  1  0  0  0  0
 18 60  1  0  0  0  0
 18 61  1  0  0  0  0
 19 20  1  0  0  0  0
 19 62  1  0  0  0  0
 19 63  1  0  0  0  0
 20 21  1  0  0  0  0
 20 64  1  0  0  0  0
 20 65  1  0  0  0  0
 21 22  1  0  0  0  0
 21 66  1  0  0  0  0
 21 67  1  0  0  0  0
 22 23  1  0  0  0  0
 22 68  1  0  0  0  0
 22 69  1  0  0  0  0
 23 24  1  0  0  0  0
 24 25  1  0  0  0  0
 24 70  1  0  0  0  0
 24 71  1  0  0  0  0
 25 26  2  0  0  0  0
 25 27  1  0  0  0  0
 27 28  1  0  0  0  0
 27 29  1  0  0  0  0
 28 72  1  0  0  0  0
 28 73  1  0  0  0  0
 28 74  1  0  0  0  0
 29 38  1  1  0  0  0
 29 30  1  0  0  0  0
 29 31  1  0  0  0  0
 30 75  1  0  0  0  0
 30 76  1  0  0  0  0
 30 77  1  0  0  0  0
 31 32  2  0  0  0  0
 31 33  1  0  0  0  0
 33 78  1  0  0  0  0
 34 79  1  0  0  0  0
M  END
>  <s_m_source_file>
BACE_34.smi

>  <i_m_source_file_index>
1

>  <i_lp_mmshare_version>
42013

>  <i_f3d_flags>
0

>  <s_epik_input>
W0NIM11bQ0hdKFtDSDNdKWMxW2NIXVtjSF1bY0hdYyhbY0hdMSlbQ0gyXVtOSF1bQ0gyXVtDQEBIXShbT0hdKVtDQEBIXTJbQ0gyXVtDQEhdKFtDSDNdKVtDSDJdW0NIMl1bQ0gyXVtDSDJdW0NIMl1PW0NIMl1DKD1PKU4oW0NIM10pW0NAQEhdKFtDSDNdKUMoPU8pW05IXTI=

>  <s_epik_cmdline>
J2VwaWtfcHl0aG9uJywgJy1waCcsICc3LjAnLCAnLXRuJywgJzgnLCAnLW1hJywgJzIwMCcsICctaW1hZScsICc8aW5maWxlLm1hZT4nLCAnLW9tYWUnLCAnPG91dGZpbGUubWFlPic=

>  <r_epik_Ionization_Penalty>
2.0739

>  <r_epik_Ionization_Penalty_Charging>
0.0000

>  <r_epik_Ionization_Penalty_Neutral>
2.0739

>  <r_epik_State_Penalty>
2.2081

>  <r_epik_Charging_Adjusted_Penalty>
2.20813

>  <i_epik_Tot_Q>
0

>  <i_epik_Tot_abs_Q>
0

>  <s_lp_Force_Field>
OPLS_2005

>  <r_lp_Energy>
57.2031

>  <b_lp_Chiralities_Consistent>
1

>  <s_lp_Variant>
BACE_34.smi:1-2

>  <chiral flag>
1

>  <version>
0

>  <s_i_glide_gridfile>
second_dock_grid_2

>  <i_i_glide_lignum>
60

>  <i_i_glide_rotatable_bonds>
7

>  <r_i_docking_score>
-2.27729

>  <r_i_glide_ligand_efficiency>
-0.0669791

>  <r_i_glide_ligand_efficiency_sa>
-0.216986

>  <r_i_glide_ligand_efficiency_ln>
-0.503117

>  <r_glide_XP_GScore>
-4.48539

>  <r_i_glide_gscore>
-4.48539

>  <r_i_glide_evdw>
-34.7409

>  <r_i_glide_ecoul>
-9.78382

>  <r_i_glide_energy>
-44.5247

>  <r_i_glide_einternal>
6.20881

>  <r_i_glide_emodel>
-57.385

>  <r_glide_XP_HBond>
-1.8173

>  <i_i_glide_confnum>
1

>  <i_i_glide_posenum>
6

>  <r_i_glide_eff_state_penalty>
2.2081

>  <i_glide_XP_PoseRank>
1

$$$$
