BACE_119.smi:1
 OpenBabel09291822493D
Structure written by MMmdl.
 88 93  0  0  1  0  0  0  0  0999 V2000
   22.6796   42.7419   -3.3312 C   0  0  0  0  0  0  0  0  0  0  0  0
   21.5466   41.7745   -3.7448 C   0  0  0  0  0  0  0  0  0  0  0  0
   20.4990   41.7108   -2.6178 C   0  0  0  0  0  0  0  0  0  0  0  0
   22.1844   40.3785   -3.9140 C   0  0  0  0  0  0  0  0  0  0  0  0
   20.8590   42.2622   -5.0316 C   0  0  0  0  0  0  0  0  0  0  0  0
   20.5611   43.6363   -5.2064 C   0  0  0  0  0  0  0  0  0  0  0  0
   19.9617   44.0986   -6.3969 C   0  0  0  0  0  0  0  0  0  0  0  0
   19.6810   43.2065   -7.3655 N   0  3  0  0  0  0  0  0  0  0  0  0
   19.8898   41.8844   -7.2370 C   0  0  0  0  0  0  0  0  0  0  0  0
   20.4682   41.3752   -6.0650 C   0  0  0  0  0  0  0  0  0  0  0  0
   19.6336   45.5392   -6.6872 C   0  0  0  0  0  0  0  0  0  0  0  0
   20.0336   46.6495   -5.7334 C   0  0  0  0  0  0  0  0  0  0  0  0
   20.7584   46.4962   -7.0448 C   0  0  0  0  0  0  0  0  0  0  0  0
   18.3384   45.6754   -7.3803 N   0  0  0  0  0  0  0  0  0  0  0  0
   18.4598   45.9392   -8.8167 C   0  0  0  0  0  0  0  0  0  0  0  0
   17.1723   45.6180   -9.6091 C   0  0  1  0  0  0  0  0  0  0  0  0
   17.2558   46.2850  -10.8508 O   0  0  0  0  0  0  0  0  0  0  0  0
   16.8607   44.1236   -9.9279 C   0  0  2  0  0  0  0  0  0  0  0  0
   15.9341   43.4818   -8.8685 C   0  0  0  0  0  0  0  0  0  0  0  0
   15.6705   42.0151   -9.1669 C   0  0  0  0  0  0  0  0  0  0  0  0
   16.2574   40.9997   -8.3815 C   0  0  0  0  0  0  0  0  0  0  0  0
   16.0562   39.6423   -8.7138 C   0  0  0  0  0  0  0  0  0  0  0  0
   16.6724   38.5445   -7.8608 C   0  0  0  0  0  0  0  0  0  0  0  0
   17.3160   37.3819   -8.6544 C   0  0  0  0  0  0  0  0  0  0  0  0
   18.3647   37.7997   -9.7028 C   0  0  0  0  0  0  0  0  0  0  0  0
   19.6077   38.4282   -9.0658 C   0  0  0  0  0  0  0  0  0  0  0  0
   20.6390   38.7254  -10.0485 N   0  0  0  0  0  0  0  0  0  0  0  0
   20.8671   40.0673  -10.3842 C   0  0  0  0  0  0  0  0  0  0  0  0
   19.8130   40.9810  -10.6146 C   0  0  0  0  0  0  0  0  0  0  0  0
   20.0927   42.3435  -10.8812 C   0  0  0  0  0  0  0  0  0  0  0  0
   21.4369   42.7704  -10.9710 C   0  0  0  0  0  0  0  0  0  0  0  0
   22.4928   41.8619  -10.7433 C   0  0  0  0  0  0  0  0  0  0  0  0
   22.1969   40.5146  -10.4519 C   0  0  0  0  0  0  0  0  0  0  0  0
   23.8809   42.3097  -10.7850 C   0  0  0  0  0  0  0  0  0  0  0  0
   24.3615   43.5029  -11.1393 N   0  0  0  0  0  0  0  0  0  0  0  0
   25.7399   43.3847  -11.0360 C   0  0  0  0  0  0  0  0  0  0  0  0
   26.0280   42.1160  -10.6061 C   0  0  0  0  0  0  0  0  0  0  0  0
   24.8601   41.4260  -10.4396 O   0  0  0  0  0  0  0  0  0  0  0  0
   18.9867   43.3446  -11.0297 C   0  0  0  0  0  0  0  0  0  0  0  0
   19.0124   44.2227  -11.8920 O   0  0  0  0  0  0  0  0  0  0  0  0
   18.0373   43.2628  -10.0837 N   0  0  0  0  0  0  0  0  0  0  0  0
   15.2528   39.3108   -9.8223 C   0  0  0  0  0  0  0  0  0  0  0  0
   14.6732   40.3219  -10.6085 C   0  0  0  0  0  0  0  0  0  0  0  0
   14.8732   41.6725  -10.2769 C   0  0  0  0  0  0  0  0  0  0  0  0
   16.3179   46.0728   -9.1010 H   0  0  0  0  0  0  0  0  0  0  0  0
   16.3104   44.0760  -10.8718 H   0  0  0  0  0  0  0  0  0  0  0  0
   23.4128   42.8637   -4.1275 H   0  0  0  0  0  0  0  0  0  0  0  0
   23.2070   42.3838   -2.4520 H   0  0  0  0  0  0  0  0  0  0  0  0
   22.3116   43.7278   -3.0633 H   0  0  0  0  0  0  0  0  0  0  0  0
   19.7005   41.0102   -2.8607 H   0  0  0  0  0  0  0  0  0  0  0  0
   20.0357   42.6825   -2.4412 H   0  0  0  0  0  0  0  0  0  0  0  0
   20.9405   41.3837   -1.6776 H   0  0  0  0  0  0  0  0  0  0  0  0
   21.4357   39.6063   -4.0721 H   0  0  0  0  0  0  0  0  0  0  0  0
   22.7425   40.0879   -3.0273 H   0  0  0  0  0  0  0  0  0  0  0  0
   22.8783   40.3544   -4.7521 H   0  0  0  0  0  0  0  0  0  0  0  0
   20.8022   44.3388   -4.4304 H   0  0  0  0  0  0  0  0  0  0  0  0
   19.5780   41.2757   -8.0625 H   0  0  0  0  0  0  0  0  0  0  0  0
   20.6202   40.3122   -5.9888 H   0  0  0  0  0  0  0  0  0  0  0  0
   19.3733   47.5092   -5.6420 H   0  0  0  0  0  0  0  0  0  0  0  0
   20.6161   46.4196   -4.8436 H   0  0  0  0  0  0  0  0  0  0  0  0
   21.7780   46.1147   -7.0023 H   0  0  0  0  0  0  0  0  0  0  0  0
   20.5933   47.2913   -7.7672 H   0  0  0  0  0  0  0  0  0  0  0  0
   17.7954   44.8275   -7.2378 H   0  0  0  0  0  0  0  0  0  0  0  0
   18.6925   46.9954   -8.9524 H   0  0  0  0  0  0  0  0  0  0  0  0
   19.3120   45.4064   -9.2377 H   0  0  0  0  0  0  0  0  0  0  0  0
   17.9128   45.8409  -11.3762 H   0  0  0  0  0  0  0  0  0  0  0  0
   16.3707   43.5687   -7.8706 H   0  0  0  0  0  0  0  0  0  0  0  0
   14.9802   44.0078   -8.8297 H   0  0  0  0  0  0  0  0  0  0  0  0
   16.8540   41.2598   -7.5175 H   0  0  0  0  0  0  0  0  0  0  0  0
   17.4058   38.9758   -7.1769 H   0  0  0  0  0  0  0  0  0  0  0  0
   15.8733   38.1512   -7.2356 H   0  0  0  0  0  0  0  0  0  0  0  0
   16.5338   36.8136   -9.1586 H   0  0  0  0  0  0  0  0  0  0  0  0
   17.7680   36.6816   -7.9512 H   0  0  0  0  0  0  0  0  0  0  0  0
   18.6703   36.9236  -10.2711 H   0  0  0  0  0  0  0  0  0  0  0  0
   17.9256   38.4818  -10.4302 H   0  0  0  0  0  0  0  0  0  0  0  0
   19.3233   39.3125   -8.5085 H   0  0  0  0  0  0  0  0  0  0  0  0
   20.0326   37.7469   -8.3299 H   0  0  0  0  0  0  0  0  0  0  0  0
   21.4716   38.1555   -9.9718 H   0  0  0  0  0  0  0  0  0  0  0  0
   18.7876   40.6423  -10.5595 H   0  0  0  0  0  0  0  0  0  0  0  0
   21.6613   43.8072  -11.1780 H   0  0  0  0  0  0  0  0  0  0  0  0
   23.0012   39.8172  -10.2683 H   0  0  0  0  0  0  0  0  0  0  0  0
   26.4030   44.2027  -11.2766 H   0  0  0  0  0  0  0  0  0  0  0  0
   26.9405   41.5768  -10.3957 H   0  0  0  0  0  0  0  0  0  0  0  0
   18.0503   42.4397   -9.4990 H   0  0  0  0  0  0  0  0  0  0  0  0
   15.0670   38.2770  -10.0689 H   0  0  0  0  0  0  0  0  0  0  0  0
   14.0595   40.0520  -11.4535 H   0  0  0  0  0  0  0  0  0  0  0  0
   14.4183   42.4425  -10.8821 H   0  0  0  0  0  0  0  0  0  0  0  0
   19.2694   43.5566   -8.2278 H   0  0  0  0  0  0  0  0  0  0  0  0
  1  2  1  0  0  0  0
  1 47  1  0  0  0  0
  1 48  1  0  0  0  0
  1 49  1  0  0  0  0
  2  3  1  0  0  0  0
  2  4  1  0  0  0  0
  2  5  1  0  0  0  0
  3 50  1  0  0  0  0
  3 51  1  0  0  0  0
  3 52  1  0  0  0  0
  4 53  1  0  0  0  0
  4 54  1  0  0  0  0
  4 55  1  0  0  0  0
  5 10  1  0  0  0  0
  5  6  2  0  0  0  0
  6  7  1  0  0  0  0
  6 56  1  0  0  0  0
  7  8  2  0  0  0  0
  7 11  1  0  0  0  0
  8  9  1  0  0  0  0
  8 88  1  0  0  0  0
  9 10  2  0  0  0  0
  9 57  1  0  0  0  0
 10 58  1  0  0  0  0
 11 13  1  0  0  0  0
 11 12  1  0  0  0  0
 11 14  1  0  0  0  0
 12 13  1  0  0  0  0
 12 59  1  0  0  0  0
 12 60  1  0  0  0  0
 13 61  1  0  0  0  0
 13 62  1  0  0  0  0
 14 15  1  0  0  0  0
 14 63  1  0  0  0  0
 15 16  1  0  0  0  0
 15 64  1  0  0  0  0
 15 65  1  0  0  0  0
 16 45  1  1  0  0  0
 16 17  1  0  0  0  0
 16 18  1  0  0  0  0
 17 66  1  0  0  0  0
 18 46  1  6  0  0  0
 18 41  1  0  0  0  0
 18 19  1  0  0  0  0
 19 20  1  0  0  0  0
 19 67  1  0  0  0  0
 19 68  1  0  0  0  0
 20 44  1  0  0  0  0
 20 21  2  0  0  0  0
 21 22  1  0  0  0  0
 21 69  1  0  0  0  0
 22 23  1  0  0  0  0
 22 42  2  0  0  0  0
 23 24  1  0  0  0  0
 23 70  1  0  0  0  0
 23 71  1  0  0  0  0
 24 25  1  0  0  0  0
 24 72  1  0  0  0  0
 24 73  1  0  0  0  0
 25 26  1  0  0  0  0
 25 74  1  0  0  0  0
 25 75  1  0  0  0  0
 26 27  1  0  0  0  0
 26 76  1  0  0  0  0
 26 77  1  0  0  0  0
 27 28  1  0  0  0  0
 27 78  1  0  0  0  0
 28 33  1  0  0  0  0
 28 29  2  0  0  0  0
 29 30  1  0  0  0  0
 29 79  1  0  0  0  0
 30 31  2  0  0  0  0
 30 39  1  0  0  0  0
 31 32  1  0  0  0  0
 31 80  1  0  0  0  0
 32 33  2  0  0  0  0
 32 34  1  0  0  0  0
 33 81  1  0  0  0  0
 34 38  1  0  0  0  0
 34 35  2  0  0  0  0
 35 36  1  0  0  0  0
 36 37  2  0  0  0  0
 36 82  1  0  0  0  0
 37 38  1  0  0  0  0
 37 83  1  0  0  0  0
 39 40  2  0  0  0  0
 39 41  1  0  0  0  0
 41 84  1  0  0  0  0
 42 43  1  0  0  0  0
 42 85  1  0  0  0  0
 43 44  2  0  0  0  0
 43 86  1  0  0  0  0
 44 87  1  0  0  0  0
M  CHG  1   8   1
M  END
>  <s_m_source_file>
BACE_119.smi

>  <i_m_source_file_index>
1

>  <i_lp_mmshare_version>
42013

>  <i_f3d_flags>
0

>  <s_epik_input>
W0NIM11DKFtDSDNdKShbQ0gzXSljMVtjSF1jKG5bY0hdW2NIXTEpQzIoW0NIMl1bQ0gyXTIpW05IXVtDSDJdW0NAQEhdKFtPSF0pW0NASF0oW0NIMl0zKVtOSF1DKD1PKWMoW2NIXWMoW2NIXTQpLWM1bltjSF1bY0hdbzUpW2NIXWM0W05IXVtDSDJdW0NIMl1bQ0gyXVtDSDJdYyhbY0hdYzM2KVtjSF1bY0hdW2NIXTY=

>  <s_epik_cmdline>
J2VwaWtfcHl0aG9uJywgJy1waCcsICc3LjAnLCAnLXRuJywgJzgnLCAnLW1hJywgJzIwMCcsICctaW1hZScsICc8aW5maWxlLm1hZT4nLCAnLW9tYWUnLCAnPG91dGZpbGUubWFlPic=

>  <r_epik_Ionization_Penalty>
2.3787

>  <r_epik_Ionization_Penalty_Charging>
2.3782

>  <r_epik_Ionization_Penalty_Neutral>
0.0005

>  <r_epik_State_Penalty>
2.7040

>  <r_epik_Charging_Adjusted_Penalty>
5.08222

>  <i_epik_Tot_Q>
1

>  <i_epik_Tot_abs_Q>
1

>  <s_lp_Force_Field>
OPLS_2005

>  <r_lp_Energy>
49.3643

>  <b_lp_Chiralities_Consistent>
1

>  <s_lp_Variant>
BACE_119.smi:1-3

>  <chiral flag>
1

>  <version>
0

>  <s_i_glide_gridfile>
second_dock_grid_2

>  <i_i_glide_lignum>
244

>  <i_i_glide_rotatable_bonds>
8

>  <r_i_docking_score>
-0.737435

>  <r_i_glide_ligand_efficiency>
-0.0167599

>  <r_i_glide_ligand_efficiency_sa>
-0.0591682

>  <r_i_glide_ligand_efficiency_ln>
-0.15414

>  <r_glide_XP_GScore>
-3.44144

>  <r_i_glide_gscore>
-3.44144

>  <r_i_glide_evdw>
-49.1315

>  <r_i_glide_ecoul>
-4.98976

>  <r_i_glide_energy>
-54.1212

>  <r_i_glide_einternal>
2.23534

>  <r_i_glide_emodel>
-76.7921

>  <r_glide_XP_HBond>
0

>  <i_i_glide_confnum>
1

>  <i_i_glide_posenum>
8

>  <r_i_glide_eff_state_penalty>
2.704

>  <i_glide_XP_PoseRank>
1

$$$$
