BACE_58.smi:1
 OpenBabel09291822493D
Structure written by MMmdl.
 81 83  0  0  1  0  0  0  0  0999 V2000
   19.0760   47.3894   -6.4131 C   0  0  0  0  0  0  0  0  0  0  0  0
   19.5492   46.3777   -7.4724 C   0  0  2  0  0  0  0  0  0  0  0  0
   20.3620   47.0684   -8.5933 C   0  0  0  0  0  0  0  0  0  0  0  0
   21.6849   47.7570   -8.1890 C   0  0  0  0  0  0  0  0  0  0  0  0
   22.7497   46.8885   -7.4799 C   0  0  0  0  0  0  0  0  0  0  0  0
   22.9595   45.4660   -8.0307 C   0  0  0  0  0  0  0  0  0  0  0  0
   23.2956   45.3589   -9.5291 C   0  0  0  0  0  0  0  0  0  0  0  0
   23.0313   43.9375  -10.0489 C   0  0  0  0  0  0  0  0  0  0  0  0
   22.9484   43.8533  -11.5797 C   0  0  0  0  0  0  0  0  0  0  0  0
   22.4714   42.5500  -12.0241 N   0  0  0  0  0  0  0  0  0  0  0  0
   21.1561   42.1197  -11.8069 C   0  0  0  0  0  0  0  0  0  0  0  0
   20.1045   43.0085  -11.4755 C   0  0  0  0  0  0  0  0  0  0  0  0
   18.7777   42.5425  -11.3776 C   0  0  0  0  0  0  0  0  0  0  0  0
   18.5082   41.1870  -11.6404 C   0  0  0  0  0  0  0  0  0  0  0  0
   19.5568   40.2853  -11.9001 C   0  0  0  0  0  0  0  0  0  0  0  0
   20.8771   40.7537  -11.9965 C   0  0  0  0  0  0  0  0  0  0  0  0
   17.6332   43.4656  -11.0776 C   0  0  0  0  0  0  0  0  0  0  0  0
   16.6707   43.4946  -11.8460 O   0  0  0  0  0  0  0  0  0  0  0  0
   17.6457   44.2004   -9.9472 N   0  0  0  0  0  0  0  0  0  0  0  0
   18.6347   44.3073   -8.8625 C   0  0  1  0  0  0  0  0  0  0  0  0
   18.3352   45.6208   -8.0683 C   0  0  0  0  0  0  0  0  0  0  0  0
   18.6665   42.9958   -8.0159 C   0  0  2  0  0  0  0  0  0  0  0  0
   17.4857   42.9502   -7.2401 O   0  0  0  0  0  0  0  0  0  0  0  0
   19.9115   42.8634   -7.1061 C   0  0  0  0  0  0  0  0  0  0  0  0
   20.0602   41.5514   -6.4308 N   0  3  0  0  0  0  0  0  0  0  0  0
   20.3941   40.3794   -7.2660 C   0  0  0  0  0  0  0  0  0  0  0  0
   19.1784   39.5183   -7.4391 C   0  0  0  0  0  0  0  0  0  0  0  0
   18.2667   39.5320   -8.5273 C   0  0  0  0  0  0  0  0  0  0  0  0
   17.2734   38.6712   -8.1710 C   0  0  0  0  0  0  0  0  0  0  0  0
   17.6601   38.1502   -6.9578 N   0  0  0  0  0  0  0  0  0  0  0  0
   18.8200   38.6656   -6.4932 N   0  0  0  0  0  0  0  0  0  0  0  0
   15.9992   38.2954   -8.8728 C   0  0  0  0  0  0  0  0  0  0  0  0
   15.8078   39.1499  -10.1376 C   0  0  0  0  0  0  0  0  0  0  0  0
   14.7817   38.5506   -7.9641 C   0  0  0  0  0  0  0  0  0  0  0  0
   16.0606   36.8179   -9.3003 C   0  0  0  0  0  0  0  0  0  0  0  0
   20.1881   45.6679   -6.9570 H   0  0  0  0  0  0  0  0  0  0  0  0
   19.6095   44.4184   -9.3261 H   0  0  0  0  0  0  0  0  0  0  0  0
   18.6602   42.1530   -8.6977 H   0  0  0  0  0  0  0  0  0  0  0  0
   18.4570   48.1695   -6.8560 H   0  0  0  0  0  0  0  0  0  0  0  0
   19.9192   47.8704   -5.9167 H   0  0  0  0  0  0  0  0  0  0  0  0
   18.4873   46.8985   -5.6381 H   0  0  0  0  0  0  0  0  0  0  0  0
   20.5824   46.3508   -9.3814 H   0  0  0  0  0  0  0  0  0  0  0  0
   19.7287   47.8167   -9.0741 H   0  0  0  0  0  0  0  0  0  0  0  0
   22.1314   48.1701   -9.0936 H   0  0  0  0  0  0  0  0  0  0  0  0
   21.4677   48.6228   -7.5633 H   0  0  0  0  0  0  0  0  0  0  0  0
   23.7017   47.4210   -7.4920 H   0  0  0  0  0  0  0  0  0  0  0  0
   22.4772   46.8027   -6.4269 H   0  0  0  0  0  0  0  0  0  0  0  0
   23.7442   44.9712   -7.4560 H   0  0  0  0  0  0  0  0  0  0  0  0
   22.0568   44.8975   -7.8252 H   0  0  0  0  0  0  0  0  0  0  0  0
   22.6864   46.0545  -10.1029 H   0  0  0  0  0  0  0  0  0  0  0  0
   24.3310   45.6464   -9.7108 H   0  0  0  0  0  0  0  0  0  0  0  0
   23.7941   43.2544   -9.6749 H   0  0  0  0  0  0  0  0  0  0  0  0
   22.0881   43.5848   -9.6351 H   0  0  0  0  0  0  0  0  0  0  0  0
   22.3054   44.6343  -11.9851 H   0  0  0  0  0  0  0  0  0  0  0  0
   23.9362   44.0213  -12.0099 H   0  0  0  0  0  0  0  0  0  0  0  0
   23.1574   41.8753  -12.3639 H   0  0  0  0  0  0  0  0  0  0  0  0
   20.3004   44.0638  -11.3574 H   0  0  0  0  0  0  0  0  0  0  0  0
   17.4924   40.8275  -11.6144 H   0  0  0  0  0  0  0  0  0  0  0  0
   19.3402   39.2383  -12.0403 H   0  0  0  0  0  0  0  0  0  0  0  0
   21.6707   40.0626  -12.2406 H   0  0  0  0  0  0  0  0  0  0  0  0
   16.8092   44.7443   -9.7985 H   0  0  0  0  0  0  0  0  0  0  0  0
   17.6126   45.4160   -7.2784 H   0  0  0  0  0  0  0  0  0  0  0  0
   17.8152   46.3246   -8.7205 H   0  0  0  0  0  0  0  0  0  0  0  0
   17.4321   42.1504   -6.7275 H   0  0  0  0  0  0  0  0  0  0  0  0
   20.8154   43.0461   -7.6834 H   0  0  0  0  0  0  0  0  0  0  0  0
   19.8751   43.6161   -6.3203 H   0  0  0  0  0  0  0  0  0  0  0  0
   20.7962   41.6444   -5.7465 H   0  0  0  0  0  0  0  0  0  0  0  0
   20.8030   40.6862   -8.2300 H   0  0  0  0  0  0  0  0  0  0  0  0
   21.1778   39.8104   -6.7640 H   0  0  0  0  0  0  0  0  0  0  0  0
   18.3100   40.1203   -9.4200 H   0  0  0  0  0  0  0  0  0  0  0  0
   17.1001   37.4621   -6.4400 H   0  0  0  0  0  0  0  0  0  0  0  0
   14.8691   38.9276  -10.6439 H   0  0  0  0  0  0  0  0  0  0  0  0
   16.6159   38.9637  -10.8402 H   0  0  0  0  0  0  0  0  0  0  0  0
   15.8024   40.2152   -9.9018 H   0  0  0  0  0  0  0  0  0  0  0  0
   14.7143   39.6004   -7.6723 H   0  0  0  0  0  0  0  0  0  0  0  0
   14.8298   37.9691   -7.0443 H   0  0  0  0  0  0  0  0  0  0  0  0
   13.8479   38.2913   -8.4639 H   0  0  0  0  0  0  0  0  0  0  0  0
   15.1784   36.5302   -9.8725 H   0  0  0  0  0  0  0  0  0  0  0  0
   16.1365   36.1519   -8.4400 H   0  0  0  0  0  0  0  0  0  0  0  0
   16.9267   36.6300   -9.9364 H   0  0  0  0  0  0  0  0  0  0  0  0
   19.1998   41.3464   -5.9189 H   0  0  0  0  0  0  0  0  0  0  0  0
  1  2  1  0  0  0  0
  1 39  1  0  0  0  0
  1 40  1  0  0  0  0
  1 41  1  0  0  0  0
  2 36  1  1  0  0  0
  2 21  1  0  0  0  0
  2  3  1  0  0  0  0
  3  4  1  0  0  0  0
  3 42  1  0  0  0  0
  3 43  1  0  0  0  0
  4  5  1  0  0  0  0
  4 44  1  0  0  0  0
  4 45  1  0  0  0  0
  5  6  1  0  0  0  0
  5 46  1  0  0  0  0
  5 47  1  0  0  0  0
  6  7  1  0  0  0  0
  6 48  1  0  0  0  0
  6 49  1  0  0  0  0
  7  8  1  0  0  0  0
  7 50  1  0  0  0  0
  7 51  1  0  0  0  0
  8  9  1  0  0  0  0
  8 52  1  0  0  0  0
  8 53  1  0  0  0  0
  9 10  1  0  0  0  0
  9 54  1  0  0  0  0
  9 55  1  0  0  0  0
 10 11  1  0  0  0  0
 10 56  1  0  0  0  0
 11 16  1  0  0  0  0
 11 12  2  0  0  0  0
 12 13  1  0  0  0  0
 12 57  1  0  0  0  0
 13 14  2  0  0  0  0
 13 17  1  0  0  0  0
 14 15  1  0  0  0  0
 14 58  1  0  0  0  0
 15 16  2  0  0  0  0
 15 59  1  0  0  0  0
 16 60  1  0  0  0  0
 17 18  2  0  0  0  0
 17 19  1  0  0  0  0
 19 20  1  0  0  0  0
 19 61  1  0  0  0  0
 20 37  1  6  0  0  0
 20 21  1  0  0  0  0
 20 22  1  0  0  0  0
 21 62  1  0  0  0  0
 21 63  1  0  0  0  0
 22 38  1  6  0  0  0
 22 23  1  0  0  0  0
 22 24  1  0  0  0  0
 23 64  1  0  0  0  0
 24 25  1  0  0  0  0
 24 65  1  0  0  0  0
 24 66  1  0  0  0  0
 25 26  1  0  0  0  0
 25 67  1  0  0  0  0
 25 81  1  0  0  0  0
 26 27  1  0  0  0  0
 26 68  1  0  0  0  0
 26 69  1  0  0  0  0
 27 31  2  0  0  0  0
 27 28  1  0  0  0  0
 28 29  2  0  0  0  0
 28 70  1  0  0  0  0
 29 30  1  0  0  0  0
 29 32  1  0  0  0  0
 30 31  1  0  0  0  0
 30 71  1  0  0  0  0
 32 33  1  0  0  0  0
 32 34  1  0  0  0  0
 32 35  1  0  0  0  0
 33 72  1  0  0  0  0
 33 73  1  0  0  0  0
 33 74  1  0  0  0  0
 34 75  1  0  0  0  0
 34 76  1  0  0  0  0
 34 77  1  0  0  0  0
 35 78  1  0  0  0  0
 35 79  1  0  0  0  0
 35 80  1  0  0  0  0
M  CHG  1  25   1
M  END
>  <s_m_source_file>
BACE_58.smi

>  <i_m_source_file_index>
1

>  <i_lp_mmshare_version>
42013

>  <i_f3d_flags>
0

>  <s_epik_input>
W05IXTFbQ0gyXVtDSDJdW0NIMl1bQ0gyXVtDSDJdW0NIMl1bQ0gyXVtDQEBIXShbQ0gzXSlbQ0gyXVtDQEhdKFtOSF1DKD1PKWMoW2NIXWMxMilbY0hdW2NIXVtjSF0yKVtDQEhdKFtPSF0pW0NIMl1bTkhdW0NIMl1jM1tjSF1jKFtuSF1uMylDKFtDSDNdKShbQ0gzXSlbQ0gzXQ==

>  <s_epik_cmdline>
J2VwaWtfcHl0aG9uJywgJy1waCcsICc3LjAnLCAnLXRuJywgJzgnLCAnLW1hJywgJzIwMCcsICctaW1hZScsICc8aW5maWxlLm1hZT4nLCAnLW9tYWUnLCAnPG91dGZpbGUubWFlPic=

>  <r_lp_tautomer_probability>
0.5

>  <r_epik_Ionization_Penalty>
0.0582

>  <r_epik_Ionization_Penalty_Charging>
0.0575

>  <r_epik_Ionization_Penalty_Neutral>
0.0007

>  <r_epik_State_Penalty>
0.4239

>  <r_epik_Charging_Adjusted_Penalty>
0.48144

>  <i_epik_Tot_Q>
1

>  <i_epik_Tot_abs_Q>
1

>  <s_lp_Force_Field>
OPLS_2005

>  <r_lp_Energy>
32.8454

>  <b_lp_Chiralities_Consistent>
1

>  <s_lp_Variant>
BACE_58.smi:1-1

>  <chiral flag>
1

>  <version>
0

>  <s_i_glide_gridfile>
second_dock_grid_2

>  <i_i_glide_lignum>
112

>  <i_i_glide_rotatable_bonds>
7

>  <r_i_docking_score>
-5.22663

>  <r_i_glide_ligand_efficiency>
-0.149332

>  <r_i_glide_ligand_efficiency_sa>
-0.488476

>  <r_i_glide_ligand_efficiency_ln>
-1.14736

>  <r_glide_XP_GScore>
-5.65053

>  <r_i_glide_gscore>
-5.65053

>  <r_i_glide_evdw>
-30.1674

>  <r_i_glide_ecoul>
-19.8596

>  <r_i_glide_energy>
-50.027

>  <r_i_glide_einternal>
8.60151

>  <r_i_glide_emodel>
-67.3693

>  <r_glide_XP_HBond>
-1.30608

>  <i_i_glide_confnum>
1

>  <i_i_glide_posenum>
4

>  <r_i_glide_eff_state_penalty>
0.4239

>  <i_glide_XP_PoseRank>
1

$$$$
