BACE_59.smi:1
 OpenBabel09291822493D
Structure written by MMmdl.
 93 97  0  0  1  0  0  0  0  0999 V2000
   20.9346   40.3598   -6.8675 C   0  0  0  0  0  0  0  0  0  0  0  0
   20.1083   39.7725   -8.0248 C   0  0  2  0  0  0  0  0  0  0  0  0
   19.2824   38.5684   -7.5105 C   0  0  0  0  0  0  0  0  0  0  0  0
   18.1614   38.0503   -8.4378 C   0  0  0  0  0  0  0  0  0  0  0  0
   17.0643   39.0905   -8.7240 C   0  0  0  0  0  0  0  0  0  0  0  0
   15.8419   38.5112   -9.4557 C   0  0  0  0  0  0  0  0  0  0  0  0
   14.6612   39.4944   -9.6052 C   0  0  0  0  0  0  0  0  0  0  0  0
   14.9306   40.6901  -10.5348 C   0  0  0  0  0  0  0  0  0  0  0  0
   15.4501   41.9260   -9.7827 C   0  0  0  0  0  0  0  0  0  0  0  0
   15.8598   43.0015  -10.6780 N   0  0  0  0  0  0  0  0  0  0  0  0
   17.2500   43.1415  -10.7654 C   0  0  0  0  0  0  0  0  0  0  0  0
   17.8606   44.3066  -10.2582 C   0  0  0  0  0  0  0  0  0  0  0  0
   19.2633   44.4593  -10.3080 C   0  0  0  0  0  0  0  0  0  0  0  0
   20.0503   43.4401  -10.8822 C   0  0  0  0  0  0  0  0  0  0  0  0
   19.4507   42.2647  -11.3834 C   0  0  0  0  0  0  0  0  0  0  0  0
   18.0499   42.1267  -11.3329 C   0  0  0  0  0  0  0  0  0  0  0  0
   20.2725   41.2108  -12.0624 C   0  0  0  0  0  0  0  0  0  0  0  0
   20.0601   40.9499  -13.2399 O   0  0  0  0  0  0  0  0  0  0  0  0
   21.2437   40.5784  -11.3878 N   0  0  0  0  0  0  0  0  0  0  0  0
   21.6014   40.6476   -9.9698 C   0  0  1  0  0  0  0  0  0  0  0  0
   20.9987   39.4125   -9.2414 C   0  0  0  0  0  0  0  0  0  0  0  0
   23.1450   40.7498   -9.9240 C   0  0  2  0  0  0  0  0  0  0  0  0
   23.6593   40.5537   -8.6244 O   0  0  0  0  0  0  0  0  0  0  0  0
   23.6599   42.1138  -10.4138 C   0  0  0  0  0  0  0  0  0  0  0  0
   25.0704   42.0073  -10.8384 N   0  3  0  0  0  0  0  0  0  0  0  0
   25.7865   43.2329  -11.2714 C   0  0  0  0  0  0  0  0  0  0  0  0
   25.2133   43.8455  -12.5301 C   0  0  0  0  0  0  0  0  0  0  0  0
   25.0642   44.5718  -11.2113 C   0  0  0  0  0  0  0  0  0  0  0  0
   27.2629   43.0928  -11.0942 C   0  0  0  0  0  0  0  0  0  0  0  0
   27.9856   43.8856  -10.1847 C   0  0  0  0  0  0  0  0  0  0  0  0
   29.3826   43.6997  -10.0575 C   0  0  0  0  0  0  0  0  0  0  0  0
   29.9723   42.6926  -10.8580 C   0  0  0  0  0  0  0  0  0  0  0  0
   29.1594   41.9348  -11.7238 C   0  0  0  0  0  0  0  0  0  0  0  0
   27.8295   42.1264  -11.8422 N   0  0  0  0  0  0  0  0  0  0  0  0
   30.2394   44.5794   -9.1283 C   0  0  0  0  0  0  0  0  0  0  0  0
   29.4009   45.2747   -8.0326 C   0  0  0  0  0  0  0  0  0  0  0  0
   31.3154   43.7424   -8.4092 C   0  0  0  0  0  0  0  0  0  0  0  0
   30.9334   45.6600   -9.9794 C   0  0  0  0  0  0  0  0  0  0  0  0
   19.9067   45.6559   -9.7739 C   0  0  0  0  0  0  0  0  0  0  0  0
   21.2077   45.9498   -9.7476 N   0  0  0  0  0  0  0  0  0  0  0  0
   21.2874   47.1911   -9.1334 C   0  0  0  0  0  0  0  0  0  0  0  0
   20.0161   47.5914   -8.8172 C   0  0  0  0  0  0  0  0  0  0  0  0
   19.1302   46.6275   -9.2178 O   0  0  0  0  0  0  0  0  0  0  0  0
   19.4076   40.5483   -8.3340 H   0  0  0  0  0  0  0  0  0  0  0  0
   21.1989   41.5478   -9.5090 H   0  0  0  0  0  0  0  0  0  0  0  0
   23.5563   39.9739  -10.5655 H   0  0  0  0  0  0  0  0  0  0  0  0
   20.2947   40.6170   -6.0222 H   0  0  0  0  0  0  0  0  0  0  0  0
   21.4503   41.2741   -7.1604 H   0  0  0  0  0  0  0  0  0  0  0  0
   21.6830   39.6504   -6.5130 H   0  0  0  0  0  0  0  0  0  0  0  0
   19.9645   37.7500   -7.2795 H   0  0  0  0  0  0  0  0  0  0  0  0
   18.8190   38.8358   -6.5591 H   0  0  0  0  0  0  0  0  0  0  0  0
   17.7020   37.1912   -7.9456 H   0  0  0  0  0  0  0  0  0  0  0  0
   18.5722   37.6699   -9.3716 H   0  0  0  0  0  0  0  0  0  0  0  0
   17.4920   39.8892   -9.3263 H   0  0  0  0  0  0  0  0  0  0  0  0
   16.7381   39.5355   -7.7828 H   0  0  0  0  0  0  0  0  0  0  0  0
   15.4899   37.6388   -8.9045 H   0  0  0  0  0  0  0  0  0  0  0  0
   16.1436   38.1433  -10.4366 H   0  0  0  0  0  0  0  0  0  0  0  0
   13.8139   38.9501  -10.0189 H   0  0  0  0  0  0  0  0  0  0  0  0
   14.3253   39.8366   -8.6245 H   0  0  0  0  0  0  0  0  0  0  0  0
   13.9982   40.9653  -11.0303 H   0  0  0  0  0  0  0  0  0  0  0  0
   15.6101   40.3837  -11.3289 H   0  0  0  0  0  0  0  0  0  0  0  0
   16.2669   41.6635   -9.1107 H   0  0  0  0  0  0  0  0  0  0  0  0
   14.6594   42.3066   -9.1349 H   0  0  0  0  0  0  0  0  0  0  0  0
   15.3734   43.8570  -10.4516 H   0  0  0  0  0  0  0  0  0  0  0  0
   17.2485   45.0785   -9.8152 H   0  0  0  0  0  0  0  0  0  0  0  0
   21.1202   43.5690  -10.9456 H   0  0  0  0  0  0  0  0  0  0  0  0
   17.5942   41.2370  -11.7395 H   0  0  0  0  0  0  0  0  0  0  0  0
   21.7634   39.9071  -11.9341 H   0  0  0  0  0  0  0  0  0  0  0  0
   20.3954   38.8438   -9.9493 H   0  0  0  0  0  0  0  0  0  0  0  0
   21.7812   38.7181   -8.9366 H   0  0  0  0  0  0  0  0  0  0  0  0
   23.6718   39.6201   -8.4512 H   0  0  0  0  0  0  0  0  0  0  0  0
   23.5395   42.8591   -9.6255 H   0  0  0  0  0  0  0  0  0  0  0  0
   23.0831   42.4490  -11.2741 H   0  0  0  0  0  0  0  0  0  0  0  0
   25.1174   41.3446  -11.6027 H   0  0  0  0  0  0  0  0  0  0  0  0
   25.9130   44.2685  -13.2491 H   0  0  0  0  0  0  0  0  0  0  0  0
   24.3018   43.4328  -12.9585 H   0  0  0  0  0  0  0  0  0  0  0  0
   24.0487   44.6608  -10.8328 H   0  0  0  0  0  0  0  0  0  0  0  0
   25.6680   45.4680  -11.0841 H   0  0  0  0  0  0  0  0  0  0  0  0
   27.4577   44.6335   -9.6143 H   0  0  0  0  0  0  0  0  0  0  0  0
   31.0340   42.5028  -10.8385 H   0  0  0  0  0  0  0  0  0  0  0  0
   29.5905   41.1620  -12.3427 H   0  0  0  0  0  0  0  0  0  0  0  0
   28.6962   45.9960   -8.4472 H   0  0  0  0  0  0  0  0  0  0  0  0
   30.0350   45.8302   -7.3410 H   0  0  0  0  0  0  0  0  0  0  0  0
   28.8390   44.5504   -7.4428 H   0  0  0  0  0  0  0  0  0  0  0  0
   32.0599   43.3508   -9.0992 H   0  0  0  0  0  0  0  0  0  0  0  0
   30.8668   42.9034   -7.8799 H   0  0  0  0  0  0  0  0  0  0  0  0
   31.8648   44.3379   -7.6794 H   0  0  0  0  0  0  0  0  0  0  0  0
   31.5730   45.2149  -10.7439 H   0  0  0  0  0  0  0  0  0  0  0  0
   31.5599   46.3094   -9.3655 H   0  0  0  0  0  0  0  0  0  0  0  0
   30.2054   46.2908  -10.4913 H   0  0  0  0  0  0  0  0  0  0  0  0
   22.2330   47.6875   -8.9719 H   0  0  0  0  0  0  0  0  0  0  0  0
   19.6017   48.4669   -8.3409 H   0  0  0  0  0  0  0  0  0  0  0  0
   25.5860   41.6139  -10.0614 H   0  0  0  0  0  0  0  0  0  0  0  0
  1  2  1  0  0  0  0
  1 47  1  0  0  0  0
  1 48  1  0  0  0  0
  1 49  1  0  0  0  0
  2 44  1  6  0  0  0
  2 21  1  0  0  0  0
  2  3  1  0  0  0  0
  3  4  1  0  0  0  0
  3 50  1  0  0  0  0
  3 51  1  0  0  0  0
  4  5  1  0  0  0  0
  4 52  1  0  0  0  0
  4 53  1  0  0  0  0
  5  6  1  0  0  0  0
  5 54  1  0  0  0  0
  5 55  1  0  0  0  0
  6  7  1  0  0  0  0
  6 56  1  0  0  0  0
  6 57  1  0  0  0  0
  7  8  1  0  0  0  0
  7 58  1  0  0  0  0
  7 59  1  0  0  0  0
  8  9  1  0  0  0  0
  8 60  1  0  0  0  0
  8 61  1  0  0  0  0
  9 10  1  0  0  0  0
  9 62  1  0  0  0  0
  9 63  1  0  0  0  0
 10 11  1  0  0  0  0
 10 64  1  0  0  0  0
 11 16  1  0  0  0  0
 11 12  2  0  0  0  0
 12 13  1  0  0  0  0
 12 65  1  0  0  0  0
 13 14  2  0  0  0  0
 13 39  1  0  0  0  0
 14 15  1  0  0  0  0
 14 66  1  0  0  0  0
 15 16  2  0  0  0  0
 15 17  1  0  0  0  0
 16 67  1  0  0  0  0
 17 18  2  0  0  0  0
 17 19  1  0  0  0  0
 19 20  1  0  0  0  0
 19 68  1  0  0  0  0
 20 45  1  1  0  0  0
 20 21  1  0  0  0  0
 20 22  1  0  0  0  0
 21 69  1  0  0  0  0
 21 70  1  0  0  0  0
 22 46  1  6  0  0  0
 22 23  1  0  0  0  0
 22 24  1  0  0  0  0
 23 71  1  0  0  0  0
 24 25  1  0  0  0  0
 24 72  1  0  0  0  0
 24 73  1  0  0  0  0
 25 26  1  0  0  0  0
 25 74  1  0  0  0  0
 25 93  1  0  0  0  0
 26 28  1  0  0  0  0
 26 27  1  0  0  0  0
 26 29  1  0  0  0  0
 27 28  1  0  0  0  0
 27 75  1  0  0  0  0
 27 76  1  0  0  0  0
 28 77  1  0  0  0  0
 28 78  1  0  0  0  0
 29 34  1  0  0  0  0
 29 30  2  0  0  0  0
 30 31  1  0  0  0  0
 30 79  1  0  0  0  0
 31 32  2  0  0  0  0
 31 35  1  0  0  0  0
 32 33  1  0  0  0  0
 32 80  1  0  0  0  0
 33 34  2  0  0  0  0
 33 81  1  0  0  0  0
 35 36  1  0  0  0  0
 35 37  1  0  0  0  0
 35 38  1  0  0  0  0
 36 82  1  0  0  0  0
 36 83  1  0  0  0  0
 36 84  1  0  0  0  0
 37 85  1  0  0  0  0
 37 86  1  0  0  0  0
 37 87  1  0  0  0  0
 38 88  1  0  0  0  0
 38 89  1  0  0  0  0
 38 90  1  0  0  0  0
 39 43  1  0  0  0  0
 39 40  2  0  0  0  0
 40 41  1  0  0  0  0
 41 42  2  0  0  0  0
 41 91  1  0  0  0  0
 42 43  1  0  0  0  0
 42 92  1  0  0  0  0
M  CHG  1  25   1
M  END
>  <s_m_source_file>
BACE_59.smi

>  <i_m_source_file_index>
1

>  <i_lp_mmshare_version>
42013

>  <i_f3d_flags>
0

>  <s_epik_input>
W05IXTFbQ0gyXVtDSDJdW0NIMl1bQ0gyXVtDSDJdW0NIMl1bQ0gyXVtDQEBIXShbQ0gzXSlbQ0gyXVtDQEhdKFtOSF1DKD1PKWMoW2NIXTIpW2NIXWMoW2NIXWMxMiktYzNuW2NIXVtjSF1vMylbQ0BIXShbT0hdKVtDSDJdW05IXUM0KFtDSDJdW0NIMl00KWM1W2NIXWMoW2NIXVtjSF1uNSlDKFtDSDNdKShbQ0gzXSlbQ0gzXQ==

>  <s_epik_cmdline>
J2VwaWtfcHl0aG9uJywgJy1waCcsICc3LjAnLCAnLXRuJywgJzgnLCAnLW1hJywgJzIwMCcsICctaW1hZScsICc8aW5maWxlLm1hZT4nLCAnLW9tYWUnLCAnPG91dGZpbGUubWFlPic=

>  <r_epik_Ionization_Penalty>
0.7261

>  <r_epik_Ionization_Penalty_Charging>
0.7242

>  <r_epik_Ionization_Penalty_Neutral>
0.0019

>  <r_epik_State_Penalty>
0.7548

>  <r_epik_Charging_Adjusted_Penalty>
1.479

>  <i_epik_Tot_Q>
1

>  <i_epik_Tot_abs_Q>
1

>  <s_lp_Force_Field>
OPLS_2005

>  <r_lp_Energy>
44.5479

>  <b_lp_Chiralities_Consistent>
1

>  <s_lp_Variant>
BACE_59.smi:1-2

>  <chiral flag>
1

>  <version>
0

>  <s_i_glide_gridfile>
second_dock_grid_2

>  <i_i_glide_lignum>
117

>  <i_i_glide_rotatable_bonds>
8

>  <r_i_docking_score>
-2.72721

>  <r_i_glide_ligand_efficiency>
-0.0634235

>  <r_i_glide_ligand_efficiency_sa>
-0.222198

>  <r_i_glide_ligand_efficiency_ln>
-0.572799

>  <r_glide_XP_GScore>
-3.48201

>  <r_i_glide_gscore>
-3.48201

>  <r_i_glide_evdw>
-40.5387

>  <r_i_glide_ecoul>
-11.5032

>  <r_i_glide_energy>
-52.0419

>  <r_i_glide_einternal>
3.09163

>  <r_i_glide_emodel>
-70.3316

>  <r_glide_XP_HBond>
-1.0506

>  <i_i_glide_confnum>
1

>  <i_i_glide_posenum>
32

>  <r_i_glide_eff_state_penalty>
0.7548

>  <i_glide_XP_PoseRank>
1

$$$$
