BACE_91.smi:1
 OpenBabel09291822493D
Structure written by MMmdl.
 91 94  0  0  1  0  0  0  0  0999 V2000
   22.8384   43.5038   -9.9695 C   0  0  0  0  0  0  0  0  0  0  0  0
   23.0360   42.1735  -10.7158 C   0  0  0  0  0  0  0  0  0  0  0  0
   24.2719   41.4158  -10.2099 C   0  0  0  0  0  0  0  0  0  0  0  0
   21.7835   41.3048  -10.6705 C   0  0  0  0  0  0  0  0  0  0  0  0
   21.1795   40.9738   -9.4394 C   0  0  0  0  0  0  0  0  0  0  0  0
   19.9723   40.2397   -9.3970 C   0  0  0  0  0  0  0  0  0  0  0  0
   19.3881   39.7771  -10.6006 C   0  0  0  0  0  0  0  0  0  0  0  0
   20.0109   40.0894  -11.8262 C   0  0  0  0  0  0  0  0  0  0  0  0
   21.1969   40.8448  -11.8653 C   0  0  0  0  0  0  0  0  0  0  0  0
   18.2080   39.0624  -10.6275 O   0  0  0  0  0  0  0  0  0  0  0  0
   17.7727   38.4252   -9.4230 C   0  0  0  0  0  0  0  0  0  0  0  0
   18.5936   37.1461   -9.2039 C   0  0  0  0  0  0  0  0  0  0  0  0
   16.3009   38.0354   -9.6403 C   0  0  0  0  0  0  0  0  0  0  0  0
   17.8696   39.3972   -8.2346 C   0  0  0  0  0  0  0  0  0  0  0  0
   19.2798   40.0017   -8.0607 C   0  0  2  0  0  0  0  0  0  0  0  0
   19.2695   41.2246   -7.2406 N   0  0  0  0  0  0  0  0  0  0  0  0
   18.4205   42.2966   -7.7620 C   0  0  0  0  0  0  0  0  0  0  0  0
   18.7698   43.6607   -7.1690 C   0  0  1  0  0  0  0  0  0  0  0  0
   20.0462   43.9800   -7.6899 O   0  0  0  0  0  0  0  0  0  0  0  0
   17.7301   44.8026   -7.4090 C   0  0  2  0  0  0  0  0  0  0  0  0
   16.5136   44.5296   -8.3389 C   0  0  0  0  0  0  0  0  0  0  0  0
   16.7980   44.4151   -9.8298 C   0  0  0  0  0  0  0  0  0  0  0  0
   16.9783   45.5746  -10.6139 C   0  0  0  0  0  0  0  0  0  0  0  0
   17.2087   45.4698  -12.0077 C   0  0  0  0  0  0  0  0  0  0  0  0
   17.2688   44.1917  -12.5982 C   0  0  0  0  0  0  0  0  0  0  0  0
   17.0847   43.0318  -11.8252 C   0  0  0  0  0  0  0  0  0  0  0  0
   16.8118   43.1479  -10.4530 C   0  0  0  0  0  0  0  0  0  0  0  0
   17.3231   46.5574  -12.8451 O   0  0  0  0  0  0  0  0  0  0  0  0
   18.0712   47.6765  -12.3848 C   0  0  0  0  0  0  0  0  0  0  0  0
   19.5501   47.4912  -12.7552 C   0  0  0  0  0  0  0  0  0  0  0  0
   20.4435   48.5899  -12.1593 C   0  0  0  0  0  0  0  0  0  0  0  0
   20.8377   48.3167  -10.6925 C   0  0  0  0  0  0  0  0  0  0  0  0
   20.6788   49.5331   -9.7598 C   0  0  0  0  0  0  0  0  0  0  0  0
   19.2197   49.7484   -9.3145 C   0  0  0  0  0  0  0  0  0  0  0  0
   18.5139   50.4802  -10.0109 O   0  0  0  0  0  0  0  0  0  0  0  0
   18.7482   49.1539   -8.1856 N   0  0  0  0  0  0  0  0  0  0  0  0
   17.3681   49.4334   -7.7539 C   0  0  0  0  0  0  0  0  0  0  0  0
   19.5376   48.2201   -7.3468 C   0  0  1  0  0  0  0  0  0  0  0  0
   20.3257   48.9855   -6.2620 C   0  0  0  0  0  0  0  0  0  0  0  0
   18.7431   47.0117   -6.8200 C   0  0  0  0  0  0  0  0  0  0  0  0
   18.4603   46.9430   -5.6236 O   0  0  0  0  0  0  0  0  0  0  0  0
   18.3776   46.0816   -7.7193 N   0  0  0  0  0  0  0  0  0  0  0  0
   19.8914   39.2560   -7.5521 H   0  0  0  0  0  0  0  0  0  0  0  0
   18.8647   43.5402   -6.0886 H   0  0  0  0  0  0  0  0  0  0  0  0
   17.2597   44.9105   -6.4400 H   0  0  0  0  0  0  0  0  0  0  0  0
   20.2910   47.7335   -7.9650 H   0  0  0  0  0  0  0  0  0  0  0  0
   21.9738   44.0434  -10.3545 H   0  0  0  0  0  0  0  0  0  0  0  0
   23.7083   44.1504  -10.0872 H   0  0  0  0  0  0  0  0  0  0  0  0
   22.6875   43.3533   -8.9010 H   0  0  0  0  0  0  0  0  0  0  0  0
   23.2235   42.4281  -11.7606 H   0  0  0  0  0  0  0  0  0  0  0  0
   24.4688   40.5483  -10.8386 H   0  0  0  0  0  0  0  0  0  0  0  0
   24.1446   41.0673   -9.1853 H   0  0  0  0  0  0  0  0  0  0  0  0
   25.1609   42.0467  -10.2432 H   0  0  0  0  0  0  0  0  0  0  0  0
   21.6243   41.3166   -8.5172 H   0  0  0  0  0  0  0  0  0  0  0  0
   19.5712   39.7501  -12.7497 H   0  0  0  0  0  0  0  0  0  0  0  0
   21.6552   41.0749  -12.8167 H   0  0  0  0  0  0  0  0  0  0  0  0
   18.2637   36.6271   -8.3037 H   0  0  0  0  0  0  0  0  0  0  0  0
   19.6595   37.3507   -9.1062 H   0  0  0  0  0  0  0  0  0  0  0  0
   18.4600   36.4597  -10.0390 H   0  0  0  0  0  0  0  0  0  0  0  0
   15.8748   37.5923   -8.7380 H   0  0  0  0  0  0  0  0  0  0  0  0
   16.2006   37.3037  -10.4393 H   0  0  0  0  0  0  0  0  0  0  0  0
   15.6928   38.9006   -9.9041 H   0  0  0  0  0  0  0  0  0  0  0  0
   17.5477   38.9206   -7.3066 H   0  0  0  0  0  0  0  0  0  0  0  0
   17.1368   40.1758   -8.4362 H   0  0  0  0  0  0  0  0  0  0  0  0
   18.9466   40.9998   -6.2947 H   0  0  0  0  0  0  0  0  0  0  0  0
   18.5337   42.3534   -8.8412 H   0  0  0  0  0  0  0  0  0  0  0  0
   17.3808   42.0674   -7.5337 H   0  0  0  0  0  0  0  0  0  0  0  0
   20.5562   43.1814   -7.6491 H   0  0  0  0  0  0  0  0  0  0  0  0
   15.9722   43.6443   -8.0065 H   0  0  0  0  0  0  0  0  0  0  0  0
   15.7986   45.3434   -8.2118 H   0  0  0  0  0  0  0  0  0  0  0  0
   16.8874   46.5361  -10.1328 H   0  0  0  0  0  0  0  0  0  0  0  0
   17.4536   44.1042  -13.6561 H   0  0  0  0  0  0  0  0  0  0  0  0
   17.1378   42.0519  -12.2799 H   0  0  0  0  0  0  0  0  0  0  0  0
   16.6289   42.2492   -9.8812 H   0  0  0  0  0  0  0  0  0  0  0  0
   17.9594   47.8732  -11.3217 H   0  0  0  0  0  0  0  0  0  0  0  0
   17.6843   48.5634  -12.8873 H   0  0  0  0  0  0  0  0  0  0  0  0
   19.9055   46.5110  -12.4367 H   0  0  0  0  0  0  0  0  0  0  0  0
   19.6390   47.5018  -13.8417 H   0  0  0  0  0  0  0  0  0  0  0  0
   19.9457   49.5558  -12.2654 H   0  0  0  0  0  0  0  0  0  0  0  0
   21.3568   48.6686  -12.7514 H   0  0  0  0  0  0  0  0  0  0  0  0
   20.2639   47.4771  -10.2975 H   0  0  0  0  0  0  0  0  0  0  0  0
   21.8767   47.9831  -10.6686 H   0  0  0  0  0  0  0  0  0  0  0  0
   21.0242   50.4330  -10.2702 H   0  0  0  0  0  0  0  0  0  0  0  0
   21.3414   49.4345   -8.9007 H   0  0  0  0  0  0  0  0  0  0  0  0
   17.0386   50.4389   -8.0141 H   0  0  0  0  0  0  0  0  0  0  0  0
   17.2632   49.3474   -6.6721 H   0  0  0  0  0  0  0  0  0  0  0  0
   16.6869   48.7239   -8.2233 H   0  0  0  0  0  0  0  0  0  0  0  0
   20.9812   49.7434   -6.6886 H   0  0  0  0  0  0  0  0  0  0  0  0
   20.9494   48.3060   -5.6798 H   0  0  0  0  0  0  0  0  0  0  0  0
   19.6594   49.4881   -5.5634 H   0  0  0  0  0  0  0  0  0  0  0  0
   18.6940   46.1939   -8.6712 H   0  0  0  0  0  0  0  0  0  0  0  0
  1  2  1  0  0  0  0
  1 47  1  0  0  0  0
  1 48  1  0  0  0  0
  1 49  1  0  0  0  0
  2  3  1  0  0  0  0
  2  4  1  0  0  0  0
  2 50  1  0  0  0  0
  3 51  1  0  0  0  0
  3 52  1  0  0  0  0
  3 53  1  0  0  0  0
  4  9  1  0  0  0  0
  4  5  2  0  0  0  0
  5  6  1  0  0  0  0
  5 54  1  0  0  0  0
  6 15  1  0  0  0  0
  6  7  2  0  0  0  0
  7  8  1  0  0  0  0
  7 10  1  0  0  0  0
  8  9  2  0  0  0  0
  8 55  1  0  0  0  0
  9 56  1  0  0  0  0
 10 11  1  0  0  0  0
 11 12  1  0  0  0  0
 11 13  1  0  0  0  0
 11 14  1  0  0  0  0
 12 57  1  0  0  0  0
 12 58  1  0  0  0  0
 12 59  1  0  0  0  0
 13 60  1  0  0  0  0
 13 61  1  0  0  0  0
 13 62  1  0  0  0  0
 14 15  1  0  0  0  0
 14 63  1  0  0  0  0
 14 64  1  0  0  0  0
 15 43  1  1  0  0  0
 15 16  1  0  0  0  0
 16 17  1  0  0  0  0
 16 65  1  0  0  0  0
 17 18  1  0  0  0  0
 17 66  1  0  0  0  0
 17 67  1  0  0  0  0
 18 44  1  1  0  0  0
 18 19  1  0  0  0  0
 18 20  1  0  0  0  0
 19 68  1  0  0  0  0
 20 45  1  1  0  0  0
 20 42  1  0  0  0  0
 20 21  1  0  0  0  0
 21 22  1  0  0  0  0
 21 69  1  0  0  0  0
 21 70  1  0  0  0  0
 22 27  1  0  0  0  0
 22 23  2  0  0  0  0
 23 24  1  0  0  0  0
 23 71  1  0  0  0  0
 24 25  2  0  0  0  0
 24 28  1  0  0  0  0
 25 26  1  0  0  0  0
 25 72  1  0  0  0  0
 26 27  2  0  0  0  0
 26 73  1  0  0  0  0
 27 74  1  0  0  0  0
 28 29  1  0  0  0  0
 29 30  1  0  0  0  0
 29 75  1  0  0  0  0
 29 76  1  0  0  0  0
 30 31  1  0  0  0  0
 30 77  1  0  0  0  0
 30 78  1  0  0  0  0
 31 32  1  0  0  0  0
 31 79  1  0  0  0  0
 31 80  1  0  0  0  0
 32 33  1  0  0  0  0
 32 81  1  0  0  0  0
 32 82  1  0  0  0  0
 33 34  1  0  0  0  0
 33 83  1  0  0  0  0
 33 84  1  0  0  0  0
 34 35  2  0  0  0  0
 34 36  1  0  0  0  0
 36 37  1  0  0  0  0
 36 38  1  0  0  0  0
 37 85  1  0  0  0  0
 37 86  1  0  0  0  0
 37 87  1  0  0  0  0
 38 46  1  6  0  0  0
 38 39  1  0  0  0  0
 38 40  1  0  0  0  0
 39 88  1  0  0  0  0
 39 89  1  0  0  0  0
 39 90  1  0  0  0  0
 40 41  2  0  0  0  0
 40 42  1  0  0  0  0
 42 91  1  0  0  0  0
M  END
>  <s_m_source_file>
BACE_91.smi

>  <i_m_source_file_index>
1

>  <i_lp_mmshare_version>
42013

>  <i_f3d_flags>
0

>  <s_epik_input>
W0NIM11bQ0hdKFtDSDNdKWMoW2NIXTEpW2NIXVtjSF1jKGMxMilPQyhbQ0gzXSkoW0NIM10pW0NIMl1bQ0BASF0yW05IXVtDSDJdW0NAQEhdKFtPSF0pW0NASF0oW0NIMl0zKVtOSF1DKD1PKVtDQEhdKFtDSDNdKU4oW0NIM10pQyg9TylbQ0gyXVtDSDJdW0NIMl1bQ0gyXVtDSDJdT2MoW2NIXWMzNClbY0hdW2NIXVtjSF00

>  <s_epik_cmdline>
J2VwaWtfcHl0aG9uJywgJy1waCcsICc3LjAnLCAnLXRuJywgJzgnLCAnLW1hJywgJzIwMCcsICctaW1hZScsICc8aW5maWxlLm1hZT4nLCAnLW9tYWUnLCAnPG91dGZpbGUubWFlPic=

>  <r_lp_tautomer_probability>
1

>  <r_epik_Ionization_Penalty>
1.9707

>  <r_epik_Ionization_Penalty_Charging>
0.0000

>  <r_epik_Ionization_Penalty_Neutral>
1.9707

>  <r_epik_State_Penalty>
2.0972

>  <r_epik_Charging_Adjusted_Penalty>
2.09724

>  <i_epik_Tot_Q>
0

>  <i_epik_Tot_abs_Q>
0

>  <s_lp_Force_Field>
OPLS_2005

>  <r_lp_Energy>
50.6926

>  <b_lp_Chiralities_Consistent>
1

>  <s_lp_Variant>
BACE_91.smi:1-2

>  <chiral flag>
1

>  <version>
0

>  <s_i_glide_gridfile>
second_dock_grid_2

>  <i_i_glide_lignum>
185

>  <i_i_glide_rotatable_bonds>
6

>  <r_i_docking_score>
-0.74583

>  <r_i_glide_ligand_efficiency>
-0.0177579

>  <r_i_glide_ligand_efficiency_sa>
-0.0617268

>  <r_i_glide_ligand_efficiency_ln>
-0.157426

>  <r_glide_XP_GScore>
-2.84303

>  <r_i_glide_gscore>
-2.84303

>  <r_i_glide_evdw>
-38.4996

>  <r_i_glide_ecoul>
-9.23211

>  <r_i_glide_energy>
-47.7317

>  <r_i_glide_einternal>
5.27983

>  <r_i_glide_emodel>
-66.2626

>  <r_glide_XP_HBond>
-1.22004

>  <i_i_glide_confnum>
1

>  <i_i_glide_posenum>
3

>  <r_i_glide_eff_state_penalty>
2.0972

>  <i_glide_XP_PoseRank>
1

$$$$
