BACE_141.smi:1
 OpenBabel09291822493D
Structure written by MMmdl.
 80 83  0  0  1  0  0  0  0  0999 V2000
   21.6046   43.8821   -5.6313 C   0  0  0  0  0  0  0  0  0  0  0  0
   20.1108   43.9449   -5.2992 C   0  0  0  0  0  0  0  0  0  0  0  0
   19.3647   45.0344   -6.0552 C   0  0  0  0  0  0  0  0  0  0  0  0
   18.4553   44.7365   -7.0870 C   0  0  0  0  0  0  0  0  0  0  0  0
   17.7456   45.8264   -7.6375 C   0  0  0  0  0  0  0  0  0  0  0  0
   16.6453   45.6363   -8.6635 C   0  0  0  0  0  0  0  0  0  0  0  0
   15.9044   44.3959   -8.4639 N   0  0  0  0  0  0  0  0  0  0  0  0
   14.7943   44.1801   -9.3906 C   0  0  0  0  0  0  0  0  0  0  0  0
   14.2106   42.7569   -9.2627 C   0  0  1  0  0  0  0  0  0  0  0  0
   13.0282   42.7072  -10.0392 O   0  0  0  0  0  0  0  0  0  0  0  0
   15.1104   41.5361   -9.6608 C   0  0  2  0  0  0  0  0  0  0  0  0
   15.0264   40.4293   -8.5664 C   0  0  0  0  0  0  0  0  0  0  0  0
   16.1966   39.4578   -8.5538 C   0  0  0  0  0  0  0  0  0  0  0  0
   17.3898   39.7921   -7.8755 C   0  0  0  0  0  0  0  0  0  0  0  0
   18.5310   38.9735   -7.9731 C   0  0  0  0  0  0  0  0  0  0  0  0
   18.4358   37.7580   -8.6956 C   0  0  0  0  0  0  0  0  0  0  0  0
   17.2256   37.3867   -9.3106 C   0  0  0  0  0  0  0  0  0  0  0  0
   16.1110   38.2408   -9.2539 C   0  0  0  0  0  0  0  0  0  0  0  0
   19.6831   39.4373   -7.3737 O   0  0  0  0  0  0  0  0  0  0  0  0
   20.8923   38.7317   -7.6159 C   0  0  0  0  0  0  0  0  0  0  0  0
   22.0816   39.5526   -7.0943 C   0  0  0  0  0  0  0  0  0  0  0  0
   22.3209   40.8860   -7.8294 C   0  0  0  0  0  0  0  0  0  0  0  0
   22.6819   40.7324   -9.3195 C   0  0  0  0  0  0  0  0  0  0  0  0
   21.5106   40.6148  -10.1207 O   0  0  0  0  0  0  0  0  0  0  0  0
   20.7714   41.7461  -10.3893 C   0  0  0  0  0  0  0  0  0  0  0  0
   21.3202   43.0454  -10.5327 C   0  0  0  0  0  0  0  0  0  0  0  0
   20.4905   44.1508  -10.8374 C   0  0  0  0  0  0  0  0  0  0  0  0
   19.1105   43.9405  -11.0372 C   0  0  0  0  0  0  0  0  0  0  0  0
   18.5492   42.6606  -10.8635 C   0  0  0  0  0  0  0  0  0  0  0  0
   19.3854   41.5674  -10.5574 C   0  0  0  0  0  0  0  0  0  0  0  0
   17.0727   42.4716  -10.9913 C   0  0  0  0  0  0  0  0  0  0  0  0
   16.4600   42.9289  -11.9572 O   0  0  0  0  0  0  0  0  0  0  0  0
   16.5165   41.8629   -9.9323 N   0  0  0  0  0  0  0  0  0  0  0  0
   21.0588   45.5335  -11.0198 C   0  0  0  0  0  0  0  0  0  0  0  0
   20.7791   46.1606  -12.0397 O   0  0  0  0  0  0  0  0  0  0  0  0
   21.8455   46.0514  -10.0471 N   0  0  0  0  0  0  0  0  0  0  0  0
   22.5296   47.3322  -10.2428 C   0  0  0  0  0  0  0  0  0  0  0  0
   21.9817   45.4876   -8.7053 C   0  0  0  0  0  0  0  0  0  0  0  0
   17.9576   47.0919   -7.2211 N   0  0  0  0  0  0  0  0  0  0  0  0
   18.8704   47.2591   -6.2644 C   0  0  0  0  0  0  0  0  0  0  0  0
   19.5587   46.3028   -5.6407 N   0  0  0  0  0  0  0  0  0  0  0  0
   13.8899   42.6535   -8.2264 H   0  0  0  0  0  0  0  0  0  0  0  0
   14.7479   41.0976  -10.5926 H   0  0  0  0  0  0  0  0  0  0  0  0
   22.0993   43.1228   -5.0262 H   0  0  0  0  0  0  0  0  0  0  0  0
   22.0956   44.8374   -5.4368 H   0  0  0  0  0  0  0  0  0  0  0  0
   21.7647   43.6217   -6.6751 H   0  0  0  0  0  0  0  0  0  0  0  0
   19.6510   42.9764   -5.5027 H   0  0  0  0  0  0  0  0  0  0  0  0
   20.0009   44.1176   -4.2283 H   0  0  0  0  0  0  0  0  0  0  0  0
   18.2746   43.7187   -7.4047 H   0  0  0  0  0  0  0  0  0  0  0  0
   15.9633   46.4856   -8.6089 H   0  0  0  0  0  0  0  0  0  0  0  0
   17.0878   45.6556   -9.6585 H   0  0  0  0  0  0  0  0  0  0  0  0
   15.6552   44.2473   -7.4866 H   0  0  0  0  0  0  0  0  0  0  0  0
   14.0086   44.9054   -9.1792 H   0  0  0  0  0  0  0  0  0  0  0  0
   15.1022   44.3709  -10.4182 H   0  0  0  0  0  0  0  0  0  0  0  0
   12.5162   41.9698   -9.7221 H   0  0  0  0  0  0  0  0  0  0  0  0
   14.9987   40.8799   -7.5734 H   0  0  0  0  0  0  0  0  0  0  0  0
   14.0886   39.8799   -8.6645 H   0  0  0  0  0  0  0  0  0  0  0  0
   17.4500   40.7149   -7.3131 H   0  0  0  0  0  0  0  0  0  0  0  0
   19.2762   37.0896   -8.7941 H   0  0  0  0  0  0  0  0  0  0  0  0
   17.1605   36.4572   -9.8534 H   0  0  0  0  0  0  0  0  0  0  0  0
   15.1980   37.9705   -9.7612 H   0  0  0  0  0  0  0  0  0  0  0  0
   20.8532   37.7754   -7.0945 H   0  0  0  0  0  0  0  0  0  0  0  0
   21.0262   38.5233   -8.6776 H   0  0  0  0  0  0  0  0  0  0  0  0
   21.9350   39.7481   -6.0315 H   0  0  0  0  0  0  0  0  0  0  0  0
   22.9863   38.9509   -7.1670 H   0  0  0  0  0  0  0  0  0  0  0  0
   21.4537   41.5361   -7.7147 H   0  0  0  0  0  0  0  0  0  0  0  0
   23.1449   41.3954   -7.3269 H   0  0  0  0  0  0  0  0  0  0  0  0
   23.3382   41.5339   -9.6538 H   0  0  0  0  0  0  0  0  0  0  0  0
   23.2601   39.8204   -9.4609 H   0  0  0  0  0  0  0  0  0  0  0  0
   22.3818   43.2121  -10.4436 H   0  0  0  0  0  0  0  0  0  0  0  0
   18.4745   44.7756  -11.2927 H   0  0  0  0  0  0  0  0  0  0  0  0
   18.9674   40.5768  -10.4452 H   0  0  0  0  0  0  0  0  0  0  0  0
   17.1596   41.5708   -9.2099 H   0  0  0  0  0  0  0  0  0  0  0  0
   21.8427   48.1576  -10.0398 H   0  0  0  0  0  0  0  0  0  0  0  0
   22.8979   47.4455  -11.2636 H   0  0  0  0  0  0  0  0  0  0  0  0
   23.3915   47.4324   -9.5835 H   0  0  0  0  0  0  0  0  0  0  0  0
   21.0501   45.0299   -8.3796 H   0  0  0  0  0  0  0  0  0  0  0  0
   22.2232   46.2537   -7.9669 H   0  0  0  0  0  0  0  0  0  0  0  0
   22.7721   44.7355   -8.6809 H   0  0  0  0  0  0  0  0  0  0  0  0
   19.0330   48.2707   -5.9238 H   0  0  0  0  0  0  0  0  0  0  0  0
  1  2  1  0  0  0  0
  1 44  1  0  0  0  0
  1 45  1  0  0  0  0
  1 46  1  0  0  0  0
  2  3  1  0  0  0  0
  2 47  1  0  0  0  0
  2 48  1  0  0  0  0
  3 41  1  0  0  0  0
  3  4  2  0  0  0  0
  4  5  1  0  0  0  0
  4 49  1  0  0  0  0
  5  6  1  0  0  0  0
  5 39  2  0  0  0  0
  6  7  1  0  0  0  0
  6 50  1  0  0  0  0
  6 51  1  0  0  0  0
  7  8  1  0  0  0  0
  7 52  1  0  0  0  0
  8  9  1  0  0  0  0
  8 53  1  0  0  0  0
  8 54  1  0  0  0  0
  9 42  1  1  0  0  0
  9 10  1  0  0  0  0
  9 11  1  0  0  0  0
 10 55  1  0  0  0  0
 11 43  1  6  0  0  0
 11 33  1  0  0  0  0
 11 12  1  0  0  0  0
 12 13  1  0  0  0  0
 12 56  1  0  0  0  0
 12 57  1  0  0  0  0
 13 18  1  0  0  0  0
 13 14  2  0  0  0  0
 14 15  1  0  0  0  0
 14 58  1  0  0  0  0
 15 16  2  0  0  0  0
 15 19  1  0  0  0  0
 16 17  1  0  0  0  0
 16 59  1  0  0  0  0
 17 18  2  0  0  0  0
 17 60  1  0  0  0  0
 18 61  1  0  0  0  0
 19 20  1  0  0  0  0
 20 21  1  0  0  0  0
 20 62  1  0  0  0  0
 20 63  1  0  0  0  0
 21 22  1  0  0  0  0
 21 64  1  0  0  0  0
 21 65  1  0  0  0  0
 22 23  1  0  0  0  0
 22 66  1  0  0  0  0
 22 67  1  0  0  0  0
 23 24  1  0  0  0  0
 23 68  1  0  0  0  0
 23 69  1  0  0  0  0
 24 25  1  0  0  0  0
 25 30  1  0  0  0  0
 25 26  2  0  0  0  0
 26 27  1  0  0  0  0
 26 70  1  0  0  0  0
 27 28  2  0  0  0  0
 27 34  1  0  0  0  0
 28 29  1  0  0  0  0
 28 71  1  0  0  0  0
 29 30  2  0  0  0  0
 29 31  1  0  0  0  0
 30 72  1  0  0  0  0
 31 32  2  0  0  0  0
 31 33  1  0  0  0  0
 33 73  1  0  0  0  0
 34 35  2  0  0  0  0
 34 36  1  0  0  0  0
 36 37  1  0  0  0  0
 36 38  1  0  0  0  0
 37 74  1  0  0  0  0
 37 75  1  0  0  0  0
 37 76  1  0  0  0  0
 38 77  1  0  0  0  0
 38 78  1  0  0  0  0
 38 79  1  0  0  0  0
 39 40  1  0  0  0  0
 40 41  2  0  0  0  0
 40 80  1  0  0  0  0
M  END
>  <s_m_source_file>
BACE_141.smi

>  <i_m_source_file_index>
1

>  <i_lp_mmshare_version>
42013

>  <i_f3d_flags>
0

>  <s_epik_input>
W0NIM11bQ0gyXWMxW2NIXWMobltjSF1uMSlbQ0gyXVtOSF1bQ0gyXVtDQEBIXShbT0hdKVtDQEhdKFtDSDJdMilbTkhdQyg9TyljKFtjSF0zKVtjSF1jKEMoPU8pTihbQ0gzXSlbQ0gzXSlbY0hdYzNPW0NIMl1bQ0gyXVtDSDJdW0NIMl1PYyhbY0hdYzI0KVtjSF1bY0hdW2NIXTQ=

>  <s_epik_cmdline>
J2VwaWtfcHl0aG9uJywgJy1waCcsICc3LjAnLCAnLXRuJywgJzgnLCAnLW1hJywgJzIwMCcsICctaW1hZScsICc8aW5maWxlLm1hZT4nLCAnLW9tYWUnLCAnPG91dGZpbGUubWFlPic=

>  <r_lp_tautomer_probability>
1

>  <r_epik_Ionization_Penalty>
1.0853

>  <r_epik_Ionization_Penalty_Charging>
0.0000

>  <r_epik_Ionization_Penalty_Neutral>
1.0853

>  <r_epik_State_Penalty>
1.1410

>  <r_epik_Charging_Adjusted_Penalty>
1.14102

>  <i_epik_Tot_Q>
0

>  <i_epik_Tot_abs_Q>
0

>  <s_epik_Chemistry_Notes>
This compound contains an electron-poor aromatic ring that is susceptible to covalent hydrolysis at low pH, typically resulting in measured values for nitrogen ring protonation that are around two units higher than predicted values.

>  <s_lp_Force_Field>
OPLS_2005

>  <r_lp_Energy>
42.4592

>  <b_lp_Chiralities_Consistent>
1

>  <s_lp_Variant>
BACE_141.smi:1-2

>  <chiral flag>
1

>  <version>
0

>  <s_i_glide_gridfile>
second_dock_grid_2

>  <i_i_glide_lignum>
290

>  <i_i_glide_rotatable_bonds>
9

>  <r_i_docking_score>
-3.844

>  <r_i_glide_ligand_efficiency>
-0.093756

>  <r_i_glide_ligand_efficiency_sa>
-0.323291

>  <r_i_glide_ligand_efficiency_ln>
-0.815517

>  <r_glide_XP_GScore>
-4.985

>  <r_i_glide_gscore>
-4.985

>  <r_i_glide_evdw>
-39.4697

>  <r_i_glide_ecoul>
-15.6892

>  <r_i_glide_energy>
-55.1589

>  <r_i_glide_einternal>
6.11296

>  <r_i_glide_emodel>
-75.3185

>  <r_glide_XP_HBond>
-1.46213

>  <i_i_glide_confnum>
1

>  <i_i_glide_posenum>
4

>  <r_i_glide_eff_state_penalty>
1.141

>  <i_glide_XP_PoseRank>
1

$$$$
