BACE_44.smi:1
 OpenBabel09291822493D
Structure written by MMmdl.
 84 86  0  0  1  0  0  0  0  0999 V2000
   24.7668   48.9526   -0.6849 C   0  0  0  0  0  0  0  0  0  0  0  0
   25.2384   49.1396   -2.1380 C   0  0  0  0  0  0  0  0  0  0  0  0
   26.2436   50.2938   -2.2472 C   0  0  0  0  0  0  0  0  0  0  0  0
   24.0738   49.3331   -3.0991 C   0  0  0  0  0  0  0  0  0  0  0  0
   23.1208   50.3465   -2.8670 C   0  0  0  0  0  0  0  0  0  0  0  0
   22.0595   50.5379   -3.7683 C   0  0  0  0  0  0  0  0  0  0  0  0
   21.9408   49.7233   -4.9100 C   0  0  0  0  0  0  0  0  0  0  0  0
   22.8960   48.7175   -5.1622 C   0  0  0  0  0  0  0  0  0  0  0  0
   22.8265   47.8961   -6.4391 C   0  0  0  0  0  0  0  0  0  0  0  0
   22.0625   46.6392   -6.2888 N   0  3  0  0  0  0  0  0  0  0  0  0
   20.5847   46.7542   -6.2678 C   0  0  0  0  0  0  0  0  0  0  0  0
   19.9187   45.5963   -7.0560 C   0  0  1  0  0  0  0  0  0  0  0  0
   20.7147   45.4109   -8.2128 O   0  0  0  0  0  0  0  0  0  0  0  0
   19.7275   44.2579   -6.2717 C   0  0  2  0  0  0  0  0  0  0  0  0
   21.0501   43.5091   -5.9492 C   0  0  0  0  0  0  0  0  0  0  0  0
   20.9441   42.3543   -4.9171 C   0  0  2  0  0  0  0  0  0  0  0  0
   22.0905   42.3932   -3.8868 C   0  0  0  0  0  0  0  0  0  0  0  0
   20.8207   40.9591   -5.5675 C   0  0  0  0  0  0  0  0  0  0  0  0
   22.0961   40.4513   -6.2831 C   0  0  0  0  0  0  0  0  0  0  0  0
   21.9034   39.1911   -7.1442 C   0  0  0  0  0  0  0  0  0  0  0  0
   20.8514   39.3966   -8.2456 C   0  0  0  0  0  0  0  0  0  0  0  0
   20.7772   38.3023   -9.3197 C   0  0  0  0  0  0  0  0  0  0  0  0
   19.6948   38.5245  -10.4073 C   0  0  0  0  0  0  0  0  0  0  0  0
   18.3143   38.4017   -9.9236 N   0  0  0  0  0  0  0  0  0  0  0  0
   17.8172   37.0618   -9.6203 C   0  0  0  0  0  0  0  0  0  0  0  0
   17.6897   39.4853   -9.2593 C   0  0  0  0  0  0  0  0  0  0  0  0
   18.2219   40.7960   -9.2340 C   0  0  0  0  0  0  0  0  0  0  0  0
   17.6943   41.7583   -8.3461 C   0  0  0  0  0  0  0  0  0  0  0  0
   16.5117   41.4495   -7.6399 C   0  0  0  0  0  0  0  0  0  0  0  0
   15.9671   40.1558   -7.7485 C   0  0  0  0  0  0  0  0  0  0  0  0
   14.7660   39.7071   -6.9453 C   0  0  0  0  0  0  0  0  0  0  0  0
   16.5741   39.2430   -8.5323 N   0  3  0  0  0  0  0  0  0  0  0  0
   18.4504   43.0373   -8.1301 C   0  0  0  0  0  0  0  0  0  0  0  0
   18.9087   43.6406   -9.1000 O   0  0  0  0  0  0  0  0  0  0  0  0
   18.7100   43.3500   -6.8413 N   0  0  0  0  0  0  0  0  0  0  0  0
   23.9563   48.5197   -4.2487 C   0  0  0  0  0  0  0  0  0  0  0  0
   18.9338   45.9430   -7.3732 H   0  0  0  0  0  0  0  0  0  0  0  0
   19.2977   44.5468   -5.3130 H   0  0  0  0  0  0  0  0  0  0  0  0
   20.0330   42.5117   -4.3378 H   0  0  0  0  0  0  0  0  0  0  0  0
   24.0346   48.1502   -0.6082 H   0  0  0  0  0  0  0  0  0  0  0  0
   24.3084   49.8564   -0.2859 H   0  0  0  0  0  0  0  0  0  0  0  0
   25.6038   48.7009   -0.0334 H   0  0  0  0  0  0  0  0  0  0  0  0
   25.7594   48.2280   -2.4350 H   0  0  0  0  0  0  0  0  0  0  0  0
   26.6330   50.3766   -3.2635 H   0  0  0  0  0  0  0  0  0  0  0  0
   27.0937   50.1443   -1.5810 H   0  0  0  0  0  0  0  0  0  0  0  0
   25.7841   51.2483   -1.9894 H   0  0  0  0  0  0  0  0  0  0  0  0
   23.2008   50.9886   -2.0019 H   0  0  0  0  0  0  0  0  0  0  0  0
   21.3232   51.3071   -3.5757 H   0  0  0  0  0  0  0  0  0  0  0  0
   21.1200   49.8807   -5.5939 H   0  0  0  0  0  0  0  0  0  0  0  0
   22.4159   48.4934   -7.2534 H   0  0  0  0  0  0  0  0  0  0  0  0
   23.8427   47.6385   -6.7388 H   0  0  0  0  0  0  0  0  0  0  0  0
   22.2377   46.0821   -7.1207 H   0  0  0  0  0  0  0  0  0  0  0  0
   20.2238   46.8076   -5.2404 H   0  0  0  0  0  0  0  0  0  0  0  0
   20.2953   47.6918   -6.7474 H   0  0  0  0  0  0  0  0  0  0  0  0
   20.2524   44.7927   -8.7744 H   0  0  0  0  0  0  0  0  0  0  0  0
   21.5050   43.1637   -6.8775 H   0  0  0  0  0  0  0  0  0  0  0  0
   21.7565   44.2268   -5.5403 H   0  0  0  0  0  0  0  0  0  0  0  0
   23.0682   42.3181   -4.3641 H   0  0  0  0  0  0  0  0  0  0  0  0
   22.0061   41.5740   -3.1723 H   0  0  0  0  0  0  0  0  0  0  0  0
   22.0763   43.3236   -3.3180 H   0  0  0  0  0  0  0  0  0  0  0  0
   20.5328   40.2302   -4.8067 H   0  0  0  0  0  0  0  0  0  0  0  0
   19.9819   40.9941   -6.2586 H   0  0  0  0  0  0  0  0  0  0  0  0
   22.5109   41.2324   -6.9192 H   0  0  0  0  0  0  0  0  0  0  0  0
   22.8623   40.2398   -5.5361 H   0  0  0  0  0  0  0  0  0  0  0  0
   22.8617   38.9503   -7.6073 H   0  0  0  0  0  0  0  0  0  0  0  0
   21.6328   38.3464   -6.5071 H   0  0  0  0  0  0  0  0  0  0  0  0
   19.8874   39.4425   -7.7484 H   0  0  0  0  0  0  0  0  0  0  0  0
   21.0295   40.3574   -8.7278 H   0  0  0  0  0  0  0  0  0  0  0  0
   21.7518   38.2141   -9.8021 H   0  0  0  0  0  0  0  0  0  0  0  0
   20.5907   37.3501   -8.8404 H   0  0  0  0  0  0  0  0  0  0  0  0
   19.8563   39.4659  -10.9303 H   0  0  0  0  0  0  0  0  0  0  0  0
   19.8225   37.7595  -11.1735 H   0  0  0  0  0  0  0  0  0  0  0  0
   16.8177   36.9276  -10.0353 H   0  0  0  0  0  0  0  0  0  0  0  0
   17.7733   36.8937   -8.5423 H   0  0  0  0  0  0  0  0  0  0  0  0
   18.4602   36.2903  -10.0400 H   0  0  0  0  0  0  0  0  0  0  0  0
   19.1123   41.0521   -9.7860 H   0  0  0  0  0  0  0  0  0  0  0  0
   16.0687   42.1501   -6.9458 H   0  0  0  0  0  0  0  0  0  0  0  0
   14.0605   40.5274   -6.8399 H   0  0  0  0  0  0  0  0  0  0  0  0
   15.0661   39.3864   -5.9485 H   0  0  0  0  0  0  0  0  0  0  0  0
   14.2432   38.8797   -7.4269 H   0  0  0  0  0  0  0  0  0  0  0  0
   18.2925   42.7111   -6.1669 H   0  0  0  0  0  0  0  0  0  0  0  0
   24.6960   47.7569   -4.4412 H   0  0  0  0  0  0  0  0  0  0  0  0
   22.3887   46.1227   -5.4853 H   0  0  0  0  0  0  0  0  0  0  0  0
   16.1893   38.2973   -8.5250 H   0  0  0  0  0  0  0  0  0  0  0  0
  1  2  1  0  0  0  0
  1 40  1  0  0  0  0
  1 41  1  0  0  0  0
  1 42  1  0  0  0  0
  2  3  1  0  0  0  0
  2  4  1  0  0  0  0
  2 43  1  0  0  0  0
  3 44  1  0  0  0  0
  3 45  1  0  0  0  0
  3 46  1  0  0  0  0
  4 36  1  0  0  0  0
  4  5  2  0  0  0  0
  5  6  1  0  0  0  0
  5 47  1  0  0  0  0
  6  7  2  0  0  0  0
  6 48  1  0  0  0  0
  7  8  1  0  0  0  0
  7 49  1  0  0  0  0
  8  9  1  0  0  0  0
  8 36  2  0  0  0  0
  9 10  1  0  0  0  0
  9 50  1  0  0  0  0
  9 51  1  0  0  0  0
 10 11  1  0  0  0  0
 10 52  1  0  0  0  0
 10 83  1  0  0  0  0
 11 12  1  0  0  0  0
 11 53  1  0  0  0  0
 11 54  1  0  0  0  0
 12 37  1  6  0  0  0
 12 13  1  0  0  0  0
 12 14  1  0  0  0  0
 13 55  1  0  0  0  0
 14 38  1  1  0  0  0
 14 35  1  0  0  0  0
 14 15  1  0  0  0  0
 15 16  1  0  0  0  0
 15 56  1  0  0  0  0
 15 57  1  0  0  0  0
 16 39  1  1  0  0  0
 16 17  1  0  0  0  0
 16 18  1  0  0  0  0
 17 58  1  0  0  0  0
 17 59  1  0  0  0  0
 17 60  1  0  0  0  0
 18 19  1  0  0  0  0
 18 61  1  0  0  0  0
 18 62  1  0  0  0  0
 19 20  1  0  0  0  0
 19 63  1  0  0  0  0
 19 64  1  0  0  0  0
 20 21  1  0  0  0  0
 20 65  1  0  0  0  0
 20 66  1  0  0  0  0
 21 22  1  0  0  0  0
 21 67  1  0  0  0  0
 21 68  1  0  0  0  0
 22 23  1  0  0  0  0
 22 69  1  0  0  0  0
 22 70  1  0  0  0  0
 23 24  1  0  0  0  0
 23 71  1  0  0  0  0
 23 72  1  0  0  0  0
 24 25  1  0  0  0  0
 24 26  1  0  0  0  0
 25 73  1  0  0  0  0
 25 74  1  0  0  0  0
 25 75  1  0  0  0  0
 26 32  1  0  0  0  0
 26 27  2  0  0  0  0
 27 28  1  0  0  0  0
 27 76  1  0  0  0  0
 28 29  2  0  0  0  0
 28 33  1  0  0  0  0
 29 30  1  0  0  0  0
 29 77  1  0  0  0  0
 30 31  1  0  0  0  0
 30 32  2  0  0  0  0
 31 78  1  0  0  0  0
 31 79  1  0  0  0  0
 31 80  1  0  0  0  0
 32 84  1  0  0  0  0
 33 34  2  0  0  0  0
 33 35  1  0  0  0  0
 35 81  1  0  0  0  0
 36 82  1  0  0  0  0
M  CHG  2  10   1  32   1
M  END
>  <s_m_source_file>
BACE_44.smi

>  <i_m_source_file_index>
1

>  <i_lp_mmshare_version>
42013

>  <i_f3d_flags>
0

>  <s_epik_input>
W0NIM11bQ0hdKFtDSDNdKWMxW2NIXVtjSF1bY0hdYyhbY0hdMSlbQ0gyXVtOSF1bQ0gyXVtDQEBIXShbT0hdKVtDQEBIXShbTkhdQyg9TyljKFtjSF1jMjMpW2NIXWMobjMpW0NIM10pW0NIMl1bQ0BIXShbQ0gzXSlbQ0gyXVtDSDJdW0NIMl1bQ0gyXVtDSDJdW0NIMl1OMltDSDNd

>  <s_epik_cmdline>
J2VwaWtfcHl0aG9uJywgJy1waCcsICc3LjAnLCAnLXRuJywgJzgnLCAnLW1hJywgJzIwMCcsICctaW1hZScsICc8aW5maWxlLm1hZT4nLCAnLW9tYWUnLCAnPG91dGZpbGUubWFlPic=

>  <r_lp_tautomer_probability>
0.999994

>  <r_epik_Ionization_Penalty>
1.9123

>  <r_epik_Ionization_Penalty_Charging>
1.9123

>  <r_epik_Ionization_Penalty_Neutral>
0.0000

>  <r_epik_State_Penalty>
1.9680

>  <r_epik_Charging_Adjusted_Penalty>
3.88028

>  <i_epik_Tot_Q>
2

>  <i_epik_Tot_abs_Q>
2

>  <s_lp_Force_Field>
OPLS_2005

>  <r_lp_Energy>
35.8008

>  <b_lp_Chiralities_Consistent>
1

>  <s_lp_Variant>
BACE_44.smi:1-2

>  <chiral flag>
1

>  <version>
0

>  <s_i_glide_gridfile>
second_dock_grid_2

>  <i_i_glide_lignum>
81

>  <i_i_glide_rotatable_bonds>
7

>  <r_i_docking_score>
-3.59693

>  <r_i_glide_ligand_efficiency>
-0.0999147

>  <r_i_glide_ligand_efficiency_sa>
-0.329911

>  <r_i_glide_ligand_efficiency_ln>
-0.784753

>  <r_glide_XP_GScore>
-5.56493

>  <r_i_glide_gscore>
-5.56493

>  <r_i_glide_evdw>
-40.3204

>  <r_i_glide_ecoul>
-7.76654

>  <r_i_glide_energy>
-48.0869

>  <r_i_glide_einternal>
12.3161

>  <r_i_glide_emodel>
-57.0027

>  <r_glide_XP_HBond>
-0.96

>  <i_i_glide_confnum>
1

>  <i_i_glide_posenum>
2

>  <r_i_glide_eff_state_penalty>
1.968

>  <i_glide_XP_PoseRank>
1

$$$$
