BACE_40.smi:1
 OpenBabel09291822493D
Structure written by MMmdl.
 89 92  0  0  1  0  0  0  0  0999 V2000
   18.5602   51.3768   -9.4892 C   0  0  0  0  0  0  0  0  0  0  0  0
   19.9024   50.6388   -9.6187 C   0  0  0  0  0  0  0  0  0  0  0  0
   19.8110   49.2484   -9.1503 N   0  0  0  0  0  0  0  0  0  0  0  0
   20.0888   48.2287  -10.1845 C   0  0  0  0  0  0  0  0  0  0  0  0
   18.8621   47.8404  -11.0415 C   0  0  0  0  0  0  0  0  0  0  0  0
   19.1861   46.6835  -12.0102 C   0  0  0  0  0  0  0  0  0  0  0  0
   17.9779   46.0872  -12.7741 C   0  0  0  0  0  0  0  0  0  0  0  0
   16.9991   45.2258  -11.9382 C   0  0  0  0  0  0  0  0  0  0  0  0
   17.3290   43.7091  -11.8242 C   0  0  1  0  0  0  0  0  0  0  0  0
   18.7539   43.4092  -11.3240 C   0  0  0  0  0  0  0  0  0  0  0  0
   16.2644   42.8746  -11.0436 C   0  0  0  0  0  0  0  0  0  0  0  0
   15.6591   43.4791   -9.7504 C   0  0  2  0  0  0  0  0  0  0  0  0
   16.7069   44.0497   -8.9132 N   0  0  0  0  0  0  0  0  0  0  0  0
   16.5565   45.1517   -8.1711 C   0  0  0  0  0  0  0  0  0  0  0  0
   15.4923   45.7495   -8.0405 O   0  0  0  0  0  0  0  0  0  0  0  0
   17.8272   45.6961   -7.6103 C   0  0  0  0  0  0  0  0  0  0  0  0
   18.1298   47.0544   -7.8082 C   0  0  0  0  0  0  0  0  0  0  0  0
   19.3839   47.5671   -7.4286 C   0  0  0  0  0  0  0  0  0  0  0  0
   20.2862   46.7464   -6.7187 C   0  0  0  0  0  0  0  0  0  0  0  0
   19.9680   45.3942   -6.4598 C   0  0  0  0  0  0  0  0  0  0  0  0
   18.7412   44.8691   -6.9214 C   0  0  0  0  0  0  0  0  0  0  0  0
   20.9059   44.5354   -5.7467 C   0  0  0  0  0  0  0  0  0  0  0  0
   22.1842   44.7673   -5.4526 N   0  0  0  0  0  0  0  0  0  0  0  0
   22.6167   43.6262   -4.7933 C   0  0  0  0  0  0  0  0  0  0  0  0
   21.5586   42.7566   -4.7095 C   0  0  0  0  0  0  0  0  0  0  0  0
   20.4686   43.3204   -5.3097 O   0  0  0  0  0  0  0  0  0  0  0  0
   19.7515   48.9673   -7.8203 C   0  0  0  0  0  0  0  0  0  0  0  0
   19.9302   49.8087   -6.9376 O   0  0  0  0  0  0  0  0  0  0  0  0
   14.8058   42.4512   -8.9544 C   0  0  2  0  0  0  0  0  0  0  0  0
   13.7042   43.1544   -8.4087 O   0  0  0  0  0  0  0  0  0  0  0  0
   15.6172   41.6552   -7.8918 C   0  0  0  0  0  0  0  0  0  0  0  0
   14.8602   40.5420   -7.2654 N   0  3  0  0  0  0  0  0  0  0  0  0
   15.6504   39.4329   -6.6837 C   0  0  0  0  0  0  0  0  0  0  0  0
   16.7389   38.8926   -7.6051 C   0  0  0  0  0  0  0  0  0  0  0  0
   18.0561   39.3921   -7.5300 C   0  0  0  0  0  0  0  0  0  0  0  0
   19.0754   38.8872   -8.3672 C   0  0  0  0  0  0  0  0  0  0  0  0
   18.7677   37.8491   -9.2724 C   0  0  0  0  0  0  0  0  0  0  0  0
   17.4555   37.3462   -9.3479 C   0  0  0  0  0  0  0  0  0  0  0  0
   16.4408   37.8746   -8.5320 C   0  0  0  0  0  0  0  0  0  0  0  0
   20.4782   39.4817   -8.3017 C   0  0  0  0  0  0  0  0  0  0  0  0
   20.7988   40.2777   -9.5732 C   0  0  0  0  0  0  0  0  0  0  0  0
   21.5598   38.4288   -8.0234 C   0  0  0  0  0  0  0  0  0  0  0  0
   17.3090   43.3165  -12.8421 H   0  0  0  0  0  0  0  0  0  0  0  0
   15.0063   44.2869  -10.0959 H   0  0  0  0  0  0  0  0  0  0  0  0
   14.3740   41.7444   -9.6660 H   0  0  0  0  0  0  0  0  0  0  0  0
   18.6350   52.3865   -9.8949 H   0  0  0  0  0  0  0  0  0  0  0  0
   18.2462   51.4676   -8.4496 H   0  0  0  0  0  0  0  0  0  0  0  0
   17.7707   50.8577  -10.0358 H   0  0  0  0  0  0  0  0  0  0  0  0
   20.2128   50.6783  -10.6635 H   0  0  0  0  0  0  0  0  0  0  0  0
   20.6781   51.1702   -9.0625 H   0  0  0  0  0  0  0  0  0  0  0  0
   20.8843   48.5848  -10.8401 H   0  0  0  0  0  0  0  0  0  0  0  0
   20.5117   47.3302   -9.7344 H   0  0  0  0  0  0  0  0  0  0  0  0
   18.0319   47.5505  -10.4059 H   0  0  0  0  0  0  0  0  0  0  0  0
   18.5151   48.7059  -11.6074 H   0  0  0  0  0  0  0  0  0  0  0  0
   19.9084   47.0475  -12.7423 H   0  0  0  0  0  0  0  0  0  0  0  0
   19.7051   45.8996  -11.4621 H   0  0  0  0  0  0  0  0  0  0  0  0
   17.4251   46.9121  -13.2235 H   0  0  0  0  0  0  0  0  0  0  0  0
   18.3440   45.4937  -13.6122 H   0  0  0  0  0  0  0  0  0  0  0  0
   16.8881   45.6823  -10.9576 H   0  0  0  0  0  0  0  0  0  0  0  0
   16.0142   45.3044  -12.3989 H   0  0  0  0  0  0  0  0  0  0  0  0
   18.9669   43.8708  -10.3623 H   0  0  0  0  0  0  0  0  0  0  0  0
   19.4997   43.7591  -12.0378 H   0  0  0  0  0  0  0  0  0  0  0  0
   18.9151   42.3361  -11.2272 H   0  0  0  0  0  0  0  0  0  0  0  0
   15.4222   42.6791  -11.7059 H   0  0  0  0  0  0  0  0  0  0  0  0
   16.6783   41.8894  -10.8219 H   0  0  0  0  0  0  0  0  0  0  0  0
   17.6330   43.6594   -8.9954 H   0  0  0  0  0  0  0  0  0  0  0  0
   17.4199   47.6896   -8.3190 H   0  0  0  0  0  0  0  0  0  0  0  0
   21.2401   47.1435   -6.4031 H   0  0  0  0  0  0  0  0  0  0  0  0
   18.4985   43.8270   -6.7564 H   0  0  0  0  0  0  0  0  0  0  0  0
   23.6315   43.5221   -4.4387 H   0  0  0  0  0  0  0  0  0  0  0  0
   21.4297   41.7688   -4.2872 H   0  0  0  0  0  0  0  0  0  0  0  0
   12.9398   42.5905   -8.4402 H   0  0  0  0  0  0  0  0  0  0  0  0
   16.4789   41.2711   -8.4313 H   0  0  0  0  0  0  0  0  0  0  0  0
   16.0218   42.2914   -7.1054 H   0  0  0  0  0  0  0  0  0  0  0  0
   14.2981   40.9338   -6.5081 H   0  0  0  0  0  0  0  0  0  0  0  0
   16.0709   39.7511   -5.7322 H   0  0  0  0  0  0  0  0  0  0  0  0
   14.9602   38.6207   -6.4465 H   0  0  0  0  0  0  0  0  0  0  0  0
   18.2860   40.1860   -6.8398 H   0  0  0  0  0  0  0  0  0  0  0  0
   19.5331   37.4347   -9.9130 H   0  0  0  0  0  0  0  0  0  0  0  0
   17.2194   36.5514  -10.0399 H   0  0  0  0  0  0  0  0  0  0  0  0
   15.4416   37.4708   -8.5923 H   0  0  0  0  0  0  0  0  0  0  0  0
   20.5015   40.1839   -7.4676 H   0  0  0  0  0  0  0  0  0  0  0  0
   20.0717   41.0746   -9.7189 H   0  0  0  0  0  0  0  0  0  0  0  0
   20.7833   39.6426  -10.4602 H   0  0  0  0  0  0  0  0  0  0  0  0
   21.7876   40.7390   -9.5159 H   0  0  0  0  0  0  0  0  0  0  0  0
   21.3523   37.8915   -7.0981 H   0  0  0  0  0  0  0  0  0  0  0  0
   22.5418   38.8966   -7.9147 H   0  0  0  0  0  0  0  0  0  0  0  0
   21.6362   37.7054   -8.8368 H   0  0  0  0  0  0  0  0  0  0  0  0
   14.2317   40.1428   -7.9493 H   0  0  0  0  0  0  0  0  0  0  0  0
  1  2  1  0  0  0  0
  1 46  1  0  0  0  0
  1 47  1  0  0  0  0
  1 48  1  0  0  0  0
  2  3  1  0  0  0  0
  2 49  1  0  0  0  0
  2 50  1  0  0  0  0
  3 27  1  0  0  0  0
  3  4  1  0  0  0  0
  4  5  1  0  0  0  0
  4 51  1  0  0  0  0
  4 52  1  0  0  0  0
  5  6  1  0  0  0  0
  5 53  1  0  0  0  0
  5 54  1  0  0  0  0
  6  7  1  0  0  0  0
  6 55  1  0  0  0  0
  6 56  1  0  0  0  0
  7  8  1  0  0  0  0
  7 57  1  0  0  0  0
  7 58  1  0  0  0  0
  8  9  1  0  0  0  0
  8 59  1  0  0  0  0
  8 60  1  0  0  0  0
  9 43  1  6  0  0  0
  9 10  1  0  0  0  0
  9 11  1  0  0  0  0
 10 61  1  0  0  0  0
 10 62  1  0  0  0  0
 10 63  1  0  0  0  0
 11 12  1  0  0  0  0
 11 64  1  0  0  0  0
 11 65  1  0  0  0  0
 12 44  1  6  0  0  0
 12 13  1  0  0  0  0
 12 29  1  0  0  0  0
 13 14  1  0  0  0  0
 13 66  1  0  0  0  0
 14 15  2  0  0  0  0
 14 16  1  0  0  0  0
 16 21  1  0  0  0  0
 16 17  2  0  0  0  0
 17 18  1  0  0  0  0
 17 67  1  0  0  0  0
 18 19  2  0  0  0  0
 18 27  1  0  0  0  0
 19 20  1  0  0  0  0
 19 68  1  0  0  0  0
 20 21  2  0  0  0  0
 20 22  1  0  0  0  0
 21 69  1  0  0  0  0
 22 26  1  0  0  0  0
 22 23  2  0  0  0  0
 23 24  1  0  0  0  0
 24 25  2  0  0  0  0
 24 70  1  0  0  0  0
 25 26  1  0  0  0  0
 25 71  1  0  0  0  0
 27 28  2  0  0  0  0
 29 45  1  6  0  0  0
 29 30  1  0  0  0  0
 29 31  1  0  0  0  0
 30 72  1  0  0  0  0
 31 32  1  0  0  0  0
 31 73  1  0  0  0  0
 31 74  1  0  0  0  0
 32 33  1  0  0  0  0
 32 75  1  0  0  0  0
 32 89  1  0  0  0  0
 33 34  1  0  0  0  0
 33 76  1  0  0  0  0
 33 77  1  0  0  0  0
 34 39  1  0  0  0  0
 34 35  2  0  0  0  0
 35 36  1  0  0  0  0
 35 78  1  0  0  0  0
 36 37  2  0  0  0  0
 36 40  1  0  0  0  0
 37 38  1  0  0  0  0
 37 79  1  0  0  0  0
 38 39  2  0  0  0  0
 38 80  1  0  0  0  0
 39 81  1  0  0  0  0
 40 41  1  0  0  0  0
 40 42  1  0  0  0  0
 40 82  1  0  0  0  0
 41 83  1  0  0  0  0
 41 84  1  0  0  0  0
 41 85  1  0  0  0  0
 42 86  1  0  0  0  0
 42 87  1  0  0  0  0
 42 88  1  0  0  0  0
M  CHG  1  32   1
M  END
>  <s_m_source_file>
BACE_40.smi

>  <i_m_source_file_index>
1

>  <i_lp_mmshare_version>
42013

>  <i_f3d_flags>
0

>  <s_epik_input>
bzFbY0hdW2NIXW5jMS1jKFtjSF0yKVtjSF1jKFtjSF1jMjMpQyg9TylOKFtDSDJdW0NIM10pW0NIMl1bQ0gyXVtDSDJdW0NIMl1bQ0gyXVtDQEBIXShbQ0gzXSlbQ0gyXVtDQEhdKFtOSF1DMz1PKVtDQEhdKFtPSF0pW0NIMl1bTkhdW0NIMl1jNFtjSF1jKFtDSF0oW0NIM10pW0NIM10pW2NIXVtjSF1bY0hdNA==

>  <s_epik_cmdline>
J2VwaWtfcHl0aG9uJywgJy1waCcsICc3LjAnLCAnLXRuJywgJzgnLCAnLW1hJywgJzIwMCcsICctaW1hZScsICc8aW5maWxlLm1hZT4nLCAnLW9tYWUnLCAnPG91dGZpbGUubWFlPic=

>  <r_epik_Ionization_Penalty>
0.0165

>  <r_epik_Ionization_Penalty_Charging>
0.0165

>  <r_epik_Ionization_Penalty_Neutral>
0.0000

>  <r_epik_State_Penalty>
0.0130

>  <r_epik_Charging_Adjusted_Penalty>
0.0295552

>  <i_epik_Tot_Q>
1

>  <i_epik_Tot_abs_Q>
1

>  <s_lp_Force_Field>
OPLS_2005

>  <r_lp_Energy>
47.8025

>  <b_lp_Chiralities_Consistent>
1

>  <s_lp_Variant>
BACE_40.smi:1-1

>  <chiral flag>
1

>  <version>
0

>  <s_i_glide_gridfile>
second_dock_grid_2

>  <i_i_glide_lignum>
71

>  <i_i_glide_rotatable_bonds>
9

>  <r_i_docking_score>
-6.08046

>  <r_i_glide_ligand_efficiency>
-0.144773

>  <r_i_glide_ligand_efficiency_sa>
-0.503234

>  <r_i_glide_ligand_efficiency_ln>
-1.28343

>  <r_glide_XP_GScore>
-6.09346

>  <r_i_glide_gscore>
-6.09346

>  <r_i_glide_evdw>
-40.5323

>  <r_i_glide_ecoul>
-14.8803

>  <r_i_glide_energy>
-55.4125

>  <r_i_glide_einternal>
4.9293

>  <r_i_glide_emodel>
-78.8977

>  <r_glide_XP_HBond>
-2.01317

>  <i_i_glide_confnum>
1

>  <i_i_glide_posenum>
6

>  <r_i_glide_eff_state_penalty>
0.013

>  <i_glide_XP_PoseRank>
1

$$$$
