BACE_155.smi:1
 OpenBabel09291822493D
Structure written by MMmdl.
 76 78  0  0  1  0  0  0  0  0999 V2000
   23.0805   44.2374    1.9228 C   0  0  0  0  0  0  0  0  0  0  0  0
   21.7717   43.6523    1.3795 C   0  0  0  0  0  0  0  0  0  0  0  0
   21.6360   43.7488   -0.1409 C   0  0  0  0  0  0  0  0  0  0  0  0
   20.4006   43.0035   -0.6839 C   0  0  0  0  0  0  0  0  0  0  0  0
   20.4799   42.9507   -2.1308 N   0  0  0  0  0  0  0  0  0  0  0  0
   20.8195   41.8998   -2.8785 C   0  0  0  0  0  0  0  0  0  0  0  0
   20.8599   40.7558   -2.4411 O   0  0  0  0  0  0  0  0  0  0  0  0
   21.2337   42.1803   -4.3280 C   0  0  2  0  0  0  0  0  0  0  0  0
   22.7718   42.1590   -4.4374 C   0  0  0  0  0  0  0  0  0  0  0  0
   20.5891   43.4698   -4.9267 C   0  0  0  0  0  0  0  0  0  0  0  0
   20.8149   43.6915   -6.4352 C   0  0  2  0  0  0  0  0  0  0  0  0
   20.3809   44.9869   -6.7894 O   0  0  0  0  0  0  0  0  0  0  0  0
   20.1419   42.6257   -7.3285 C   0  0  2  0  0  0  0  0  0  0  0  0
   20.8298   42.4101   -8.6973 C   0  0  0  0  0  0  0  0  0  0  0  0
   20.2015   41.2755   -9.4928 C   0  0  0  0  0  0  0  0  0  0  0  0
   19.8427   41.4769  -10.8391 C   0  0  0  0  0  0  0  0  0  0  0  0
   19.2212   40.4393  -11.5583 C   0  0  0  0  0  0  0  0  0  0  0  0
   18.9454   39.2108  -10.9276 C   0  0  0  0  0  0  0  0  0  0  0  0
   19.2844   39.0031   -9.5782 C   0  0  0  0  0  0  0  0  0  0  0  0
   18.9905   37.6867   -8.8733 C   0  0  0  0  0  0  0  0  0  0  0  0
   17.5576   37.1261   -9.0151 C   0  0  0  0  0  0  0  0  0  0  0  0
   16.4254   38.0480   -8.5218 C   0  0  0  0  0  0  0  0  0  0  0  0
   15.7355   38.8233   -9.6563 C   0  0  0  0  0  0  0  0  0  0  0  0
   14.7146   39.7448   -9.1678 N   0  0  0  0  0  0  0  0  0  0  0  0
   15.0452   41.1000   -9.0370 C   0  0  0  0  0  0  0  0  0  0  0  0
   16.3363   41.5633   -8.6985 C   0  0  0  0  0  0  0  0  0  0  0  0
   16.5673   42.9497   -8.5482 C   0  0  0  0  0  0  0  0  0  0  0  0
   15.5022   43.8468   -8.7863 C   0  0  0  0  0  0  0  0  0  0  0  0
   14.2301   43.3322   -9.1130 C   0  0  0  0  0  0  0  0  0  0  0  0
   13.0142   44.2093   -9.2958 C   0  0  0  0  0  0  0  0  0  0  0  0
   14.0600   42.0012   -9.2400 N   0  3  0  0  0  0  0  0  0  0  0  0
   17.9403   43.4620   -8.2228 C   0  0  0  0  0  0  0  0  0  0  0  0
   18.3501   44.5177   -8.7071 O   0  0  0  0  0  0  0  0  0  0  0  0
   18.6764   42.6941   -7.4036 N   0  0  0  0  0  0  0  0  0  0  0  0
   19.9451   40.0281   -8.8794 C   0  0  0  0  0  0  0  0  0  0  0  0
   20.8618   41.3069   -4.8592 H   0  0  0  0  0  0  0  0  0  0  0  0
   21.8886   43.6802   -6.6190 H   0  0  0  0  0  0  0  0  0  0  0  0
   20.3057   41.6872   -6.8173 H   0  0  0  0  0  0  0  0  0  0  0  0
   23.1087   44.1639    3.0097 H   0  0  0  0  0  0  0  0  0  0  0  0
   23.1918   45.2854    1.6524 H   0  0  0  0  0  0  0  0  0  0  0  0
   23.9432   43.6915    1.5384 H   0  0  0  0  0  0  0  0  0  0  0  0
   21.7269   42.5993    1.6471 H   0  0  0  0  0  0  0  0  0  0  0  0
   20.9252   44.1499    1.8554 H   0  0  0  0  0  0  0  0  0  0  0  0
   21.5920   44.7971   -0.4388 H   0  0  0  0  0  0  0  0  0  0  0  0
   22.5361   43.3484   -0.6071 H   0  0  0  0  0  0  0  0  0  0  0  0
   20.3104   42.0035   -0.2593 H   0  0  0  0  0  0  0  0  0  0  0  0
   19.4870   43.5333   -0.4150 H   0  0  0  0  0  0  0  0  0  0  0  0
   20.4761   43.8596   -2.5811 H   0  0  0  0  0  0  0  0  0  0  0  0
   23.1977   41.2865   -3.9394 H   0  0  0  0  0  0  0  0  0  0  0  0
   23.2165   43.0480   -3.9874 H   0  0  0  0  0  0  0  0  0  0  0  0
   23.0947   42.1166   -5.4778 H   0  0  0  0  0  0  0  0  0  0  0  0
   19.5195   43.4756   -4.7234 H   0  0  0  0  0  0  0  0  0  0  0  0
   21.0050   44.3390   -4.4217 H   0  0  0  0  0  0  0  0  0  0  0  0
   19.6012   44.8939   -7.3313 H   0  0  0  0  0  0  0  0  0  0  0  0
   20.8028   43.3325   -9.2772 H   0  0  0  0  0  0  0  0  0  0  0  0
   21.8849   42.1746   -8.5493 H   0  0  0  0  0  0  0  0  0  0  0  0
   20.0364   42.4226  -11.3240 H   0  0  0  0  0  0  0  0  0  0  0  0
   18.9504   40.5857  -12.5942 H   0  0  0  0  0  0  0  0  0  0  0  0
   18.4607   38.4313  -11.4919 H   0  0  0  0  0  0  0  0  0  0  0  0
   19.7011   36.9503   -9.2403 H   0  0  0  0  0  0  0  0  0  0  0  0
   19.2062   37.7999   -7.8091 H   0  0  0  0  0  0  0  0  0  0  0  0
   17.3671   36.8181  -10.0402 H   0  0  0  0  0  0  0  0  0  0  0  0
   17.5138   36.2037   -8.4319 H   0  0  0  0  0  0  0  0  0  0  0  0
   15.6662   37.4305   -8.0403 H   0  0  0  0  0  0  0  0  0  0  0  0
   16.7977   38.7117   -7.7417 H   0  0  0  0  0  0  0  0  0  0  0  0
   16.4585   39.3701  -10.2553 H   0  0  0  0  0  0  0  0  0  0  0  0
   15.2574   38.1191  -10.3370 H   0  0  0  0  0  0  0  0  0  0  0  0
   13.7472   39.4961   -9.3295 H   0  0  0  0  0  0  0  0  0  0  0  0
   17.1431   40.8623   -8.5435 H   0  0  0  0  0  0  0  0  0  0  0  0
   15.6579   44.9113   -8.6874 H   0  0  0  0  0  0  0  0  0  0  0  0
   12.9712   44.9501   -8.4982 H   0  0  0  0  0  0  0  0  0  0  0  0
   12.0950   43.6215   -9.2512 H   0  0  0  0  0  0  0  0  0  0  0  0
   13.0558   44.7162  -10.2612 H   0  0  0  0  0  0  0  0  0  0  0  0
   18.1913   41.9447   -6.9212 H   0  0  0  0  0  0  0  0  0  0  0  0
   20.2343   39.8489   -7.8555 H   0  0  0  0  0  0  0  0  0  0  0  0
   13.1121   41.6427   -9.3959 H   0  0  0  0  0  0  0  0  0  0  0  0
  1  2  1  0  0  0  0
  1 39  1  0  0  0  0
  1 40  1  0  0  0  0
  1 41  1  0  0  0  0
  2  3  1  0  0  0  0
  2 42  1  0  0  0  0
  2 43  1  0  0  0  0
  3  4  1  0  0  0  0
  3 44  1  0  0  0  0
  3 45  1  0  0  0  0
  4  5  1  0  0  0  0
  4 46  1  0  0  0  0
  4 47  1  0  0  0  0
  5  6  1  0  0  0  0
  5 48  1  0  0  0  0
  6  7  2  0  0  0  0
  6  8  1  0  0  0  0
  8 36  1  6  0  0  0
  8  9  1  0  0  0  0
  8 10  1  0  0  0  0
  9 49  1  0  0  0  0
  9 50  1  0  0  0  0
  9 51  1  0  0  0  0
 10 11  1  0  0  0  0
 10 52  1  0  0  0  0
 10 53  1  0  0  0  0
 11 37  1  6  0  0  0
 11 12  1  0  0  0  0
 11 13  1  0  0  0  0
 12 54  1  0  0  0  0
 13 38  1  1  0  0  0
 13 34  1  0  0  0  0
 13 14  1  0  0  0  0
 14 15  1  0  0  0  0
 14 55  1  0  0  0  0
 14 56  1  0  0  0  0
 15 35  1  0  0  0  0
 15 16  2  0  0  0  0
 16 17  1  0  0  0  0
 16 57  1  0  0  0  0
 17 18  2  0  0  0  0
 17 58  1  0  0  0  0
 18 19  1  0  0  0  0
 18 59  1  0  0  0  0
 19 20  1  0  0  0  0
 19 35  2  0  0  0  0
 20 21  1  0  0  0  0
 20 60  1  0  0  0  0
 20 61  1  0  0  0  0
 21 22  1  0  0  0  0
 21 62  1  0  0  0  0
 21 63  1  0  0  0  0
 22 23  1  0  0  0  0
 22 64  1  0  0  0  0
 22 65  1  0  0  0  0
 23 24  1  0  0  0  0
 23 66  1  0  0  0  0
 23 67  1  0  0  0  0
 24 25  1  0  0  0  0
 24 68  1  0  0  0  0
 25 31  1  0  0  0  0
 25 26  2  0  0  0  0
 26 27  1  0  0  0  0
 26 69  1  0  0  0  0
 27 28  2  0  0  0  0
 27 32  1  0  0  0  0
 28 29  1  0  0  0  0
 28 70  1  0  0  0  0
 29 30  1  0  0  0  0
 29 31  2  0  0  0  0
 30 71  1  0  0  0  0
 30 72  1  0  0  0  0
 30 73  1  0  0  0  0
 31 76  1  0  0  0  0
 32 33  2  0  0  0  0
 32 34  1  0  0  0  0
 34 74  1  0  0  0  0
 35 75  1  0  0  0  0
M  CHG  1  31   1
M  END
>  <s_m_source_file>
BACE_155.smi

>  <i_m_source_file_index>
1

>  <i_lp_mmshare_version>
42013

>  <i_f3d_flags>
0

>  <s_epik_input>
W0NIM11bQ0gyXVtDSDJdW0NIMl1bTkhdQyg9TylbQ0BIXShbQ0gzXSlbQ0gyXVtDQEhdKFtPSF0pW0NASF0oW0NIMl0xKVtOSF1DKD1PKWMoW2NIXWMobjIpW0NIM10pW2NIXWMyW05IXVtDSDJdW0NIMl1bQ0gyXVtDSDJdYyhbY0hdMylbY0hdW2NIXVtjSF1jMTM=

>  <s_epik_cmdline>
J2VwaWtfcHl0aG9uJywgJy1waCcsICc3LjAnLCAnLXRuJywgJzgnLCAnLW1hJywgJzIwMCcsICctaW1hZScsICc8aW5maWxlLm1hZT4nLCAnLW9tYWUnLCAnPG91dGZpbGUubWFlPic=

>  <r_lp_tautomer_probability>
0.999994

>  <r_epik_Ionization_Penalty>
2.2409

>  <r_epik_Ionization_Penalty_Charging>
2.2408

>  <r_epik_Ionization_Penalty_Neutral>
0.0000

>  <r_epik_State_Penalty>
2.3872

>  <r_epik_Charging_Adjusted_Penalty>
4.62807

>  <i_epik_Tot_Q>
1

>  <i_epik_Tot_abs_Q>
1

>  <s_lp_Force_Field>
OPLS_2005

>  <r_lp_Energy>
23.2635

>  <b_lp_Chiralities_Consistent>
1

>  <s_lp_Variant>
BACE_155.smi:1-2

>  <chiral flag>
1

>  <version>
0

>  <s_i_glide_gridfile>
second_dock_grid_2

>  <i_i_glide_lignum>
309

>  <i_i_glide_rotatable_bonds>
9

>  <r_i_docking_score>
-3.44975

>  <r_i_glide_ligand_efficiency>
-0.0985643

>  <r_i_glide_ligand_efficiency_sa>
-0.32241

>  <r_i_glide_ligand_efficiency_ln>
-0.757297

>  <r_glide_XP_GScore>
-5.83695

>  <r_i_glide_gscore>
-5.83695

>  <r_i_glide_evdw>
-43.2851

>  <r_i_glide_ecoul>
-11.2421

>  <r_i_glide_energy>
-54.5272

>  <r_i_glide_einternal>
4.00817

>  <r_i_glide_emodel>
-73.761

>  <r_glide_XP_HBond>
-0.94315

>  <i_i_glide_confnum>
1

>  <i_i_glide_posenum>
5

>  <r_i_glide_eff_state_penalty>
2.3872

>  <i_glide_XP_PoseRank>
1

$$$$
