BACE_116.smi:1
 OpenBabel09291822493D
Structure written by MMmdl.
 84 87  0  0  1  0  0  0  0  0999 V2000
   15.6629   44.9367   -8.4250 C   0  0  0  0  0  0  0  0  0  0  0  0
   14.6114   44.1082   -9.1799 C   0  0  0  0  0  0  0  0  0  0  0  0
   13.2827   43.9973   -8.4082 C   0  0  0  0  0  0  0  0  0  0  0  0
   15.1781   42.7561   -9.5925 C   0  0  0  0  0  0  0  0  0  0  0  0
   15.8150   42.6229  -10.8433 C   0  0  0  0  0  0  0  0  0  0  0  0
   16.3472   41.3818  -11.2389 C   0  0  0  0  0  0  0  0  0  0  0  0
   16.2400   40.2670  -10.3897 C   0  0  0  0  0  0  0  0  0  0  0  0
   15.6143   40.3795   -9.1242 C   0  0  0  0  0  0  0  0  0  0  0  0
   15.1005   41.6370   -8.7352 C   0  0  0  0  0  0  0  0  0  0  0  0
   15.5360   39.1960   -8.1414 C   0  0  0  0  0  0  0  0  0  0  0  0
   14.1084   38.9946   -7.6230 C   0  0  0  0  0  0  0  0  0  0  0  0
   15.9695   37.8456   -8.7717 C   0  0  0  0  0  0  0  0  0  0  0  0
   16.3735   39.4920   -6.9560 N   0  3  0  0  0  0  0  0  0  0  0  0
   17.7881   39.8409   -7.2417 C   0  0  0  0  0  0  0  0  0  0  0  0
   18.7469   39.1218   -6.2724 C   0  0  1  0  0  0  0  0  0  0  0  0
   18.4605   37.7500   -6.4380 O   0  0  0  0  0  0  0  0  0  0  0  0
   20.2869   39.3528   -6.4926 C   0  0  2  0  0  0  0  0  0  0  0  0
   21.0057   40.1882   -5.3851 C   0  0  0  0  0  0  0  0  0  0  0  0
   21.3632   41.6458   -5.7123 C   0  0  0  0  0  0  0  0  0  0  0  0
   20.5164   42.6810   -5.2825 C   0  0  0  0  0  0  0  0  0  0  0  0
   20.7875   44.0240   -5.5852 C   0  0  0  0  0  0  0  0  0  0  0  0
   19.9001   44.9896   -5.2401 F   0  0  0  0  0  0  0  0  0  0  0  0
   21.9850   44.3668   -6.2380 C   0  0  0  0  0  0  0  0  0  0  0  0
   22.2441   45.7124   -6.4975 N   0  0  0  0  0  0  0  0  0  0  0  0
   22.9006   43.3504   -6.6038 C   0  0  0  0  0  0  0  0  0  0  0  0
   24.2540   43.7195   -7.2034 C   0  0  0  0  0  0  0  0  0  0  0  0
   24.1850   44.0123   -8.7082 C   0  0  0  0  0  0  0  0  0  0  0  0
   24.4977   42.7845   -9.5746 C   0  0  0  0  0  0  0  0  0  0  0  0
   24.0929   42.9753  -11.0460 C   0  0  0  0  0  0  0  0  0  0  0  0
   22.6532   43.1074  -11.2580 N   0  0  0  0  0  0  0  0  0  0  0  0
   21.9566   41.8945  -11.3026 C   0  0  0  0  0  0  0  0  0  0  0  0
   21.5765   41.3501  -12.5437 C   0  0  0  0  0  0  0  0  0  0  0  0
   20.8600   40.1487  -12.6178 C   0  0  0  0  0  0  0  0  0  0  0  0
   20.5321   39.4602  -11.4395 C   0  0  0  0  0  0  0  0  0  0  0  0
   20.9289   39.9724  -10.1858 C   0  0  0  0  0  0  0  0  0  0  0  0
   21.6249   41.2015  -10.1242 C   0  0  0  0  0  0  0  0  0  0  0  0
   20.6492   39.1848   -8.9463 C   0  0  0  0  0  0  0  0  0  0  0  0
   20.4241   37.9790   -9.0086 O   0  0  0  0  0  0  0  0  0  0  0  0
   20.5853   39.8964   -7.8119 N   0  0  0  0  0  0  0  0  0  0  0  0
   22.5622   41.9924   -6.3781 C   0  0  0  0  0  0  0  0  0  0  0  0
   18.4937   39.3359   -5.2374 H   0  0  0  0  0  0  0  0  0  0  0  0
   20.7628   38.3710   -6.4403 H   0  0  0  0  0  0  0  0  0  0  0  0
   16.5321   45.1257   -9.0562 H   0  0  0  0  0  0  0  0  0  0  0  0
   16.0191   44.4158   -7.5365 H   0  0  0  0  0  0  0  0  0  0  0  0
   15.2643   45.9019   -8.1139 H   0  0  0  0  0  0  0  0  0  0  0  0
   14.3847   44.6475  -10.1012 H   0  0  0  0  0  0  0  0  0  0  0  0
   12.5479   43.4317   -8.9825 H   0  0  0  0  0  0  0  0  0  0  0  0
   12.8600   44.9780   -8.2105 H   0  0  0  0  0  0  0  0  0  0  0  0
   13.3959   43.5035   -7.4443 H   0  0  0  0  0  0  0  0  0  0  0  0
   15.9033   43.4774  -11.4959 H   0  0  0  0  0  0  0  0  0  0  0  0
   16.8461   41.2817  -12.1926 H   0  0  0  0  0  0  0  0  0  0  0  0
   16.6684   39.3374  -10.7322 H   0  0  0  0  0  0  0  0  0  0  0  0
   14.6483   41.7390   -7.7597 H   0  0  0  0  0  0  0  0  0  0  0  0
   13.3864   38.9459   -8.4401 H   0  0  0  0  0  0  0  0  0  0  0  0
   13.7945   39.7765   -6.9370 H   0  0  0  0  0  0  0  0  0  0  0  0
   14.0595   38.0734   -7.0462 H   0  0  0  0  0  0  0  0  0  0  0  0
   15.3235   37.5747   -9.6071 H   0  0  0  0  0  0  0  0  0  0  0  0
   15.9072   37.0420   -8.0407 H   0  0  0  0  0  0  0  0  0  0  0  0
   16.9943   37.8379   -9.1369 H   0  0  0  0  0  0  0  0  0  0  0  0
   15.9548   40.2551   -6.4403 H   0  0  0  0  0  0  0  0  0  0  0  0
   18.0313   39.5455   -8.2578 H   0  0  0  0  0  0  0  0  0  0  0  0
   17.9136   40.9253   -7.2328 H   0  0  0  0  0  0  0  0  0  0  0  0
   17.6367   37.4909   -6.0402 H   0  0  0  0  0  0  0  0  0  0  0  0
   20.4424   40.1533   -4.4516 H   0  0  0  0  0  0  0  0  0  0  0  0
   21.9490   39.6920   -5.1488 H   0  0  0  0  0  0  0  0  0  0  0  0
   19.6599   42.4467   -4.6872 H   0  0  0  0  0  0  0  0  0  0  0  0
   22.9840   45.9703   -7.1370 H   0  0  0  0  0  0  0  0  0  0  0  0
   21.4953   46.3833   -6.3953 H   0  0  0  0  0  0  0  0  0  0  0  0
   24.6295   44.5986   -6.6814 H   0  0  0  0  0  0  0  0  0  0  0  0
   24.9942   42.9480   -6.9935 H   0  0  0  0  0  0  0  0  0  0  0  0
   23.2128   44.4392   -8.9584 H   0  0  0  0  0  0  0  0  0  0  0  0
   24.9173   44.7818   -8.9541 H   0  0  0  0  0  0  0  0  0  0  0  0
   25.5703   42.5953   -9.5313 H   0  0  0  0  0  0  0  0  0  0  0  0
   24.0437   41.8866   -9.1606 H   0  0  0  0  0  0  0  0  0  0  0  0
   24.5749   43.8698  -11.4386 H   0  0  0  0  0  0  0  0  0  0  0  0
   24.4772   42.1498  -11.6403 H   0  0  0  0  0  0  0  0  0  0  0  0
   22.4607   43.6917  -12.0565 H   0  0  0  0  0  0  0  0  0  0  0  0
   21.8807   41.8269  -13.4620 H   0  0  0  0  0  0  0  0  0  0  0  0
   20.5848   39.7509  -13.5823 H   0  0  0  0  0  0  0  0  0  0  0  0
   19.9945   38.5254  -11.5047 H   0  0  0  0  0  0  0  0  0  0  0  0
   21.9132   41.6239   -9.1745 H   0  0  0  0  0  0  0  0  0  0  0  0
   20.7697   40.8878   -7.8637 H   0  0  0  0  0  0  0  0  0  0  0  0
   23.2503   41.2158   -6.6869 H   0  0  0  0  0  0  0  0  0  0  0  0
   16.3309   38.6715   -6.3662 H   0  0  0  0  0  0  0  0  0  0  0  0
  1  2  1  0  0  0  0
  1 43  1  0  0  0  0
  1 44  1  0  0  0  0
  1 45  1  0  0  0  0
  2  3  1  0  0  0  0
  2  4  1  0  0  0  0
  2 46  1  0  0  0  0
  3 47  1  0  0  0  0
  3 48  1  0  0  0  0
  3 49  1  0  0  0  0
  4  9  1  0  0  0  0
  4  5  2  0  0  0  0
  5  6  1  0  0  0  0
  5 50  1  0  0  0  0
  6  7  2  0  0  0  0
  6 51  1  0  0  0  0
  7  8  1  0  0  0  0
  7 52  1  0  0  0  0
  8  9  2  0  0  0  0
  8 10  1  0  0  0  0
  9 53  1  0  0  0  0
 10 11  1  0  0  0  0
 10 12  1  0  0  0  0
 10 13  1  0  0  0  0
 11 54  1  0  0  0  0
 11 55  1  0  0  0  0
 11 56  1  0  0  0  0
 12 57  1  0  0  0  0
 12 58  1  0  0  0  0
 12 59  1  0  0  0  0
 13 14  1  0  0  0  0
 13 60  1  0  0  0  0
 13 84  1  0  0  0  0
 14 15  1  0  0  0  0
 14 61  1  0  0  0  0
 14 62  1  0  0  0  0
 15 41  1  1  0  0  0
 15 16  1  0  0  0  0
 15 17  1  0  0  0  0
 16 63  1  0  0  0  0
 17 42  1  1  0  0  0
 17 39  1  0  0  0  0
 17 18  1  0  0  0  0
 18 19  1  0  0  0  0
 18 64  1  0  0  0  0
 18 65  1  0  0  0  0
 19 40  1  0  0  0  0
 19 20  2  0  0  0  0
 20 21  1  0  0  0  0
 20 66  1  0  0  0  0
 21 22  1  0  0  0  0
 21 23  2  0  0  0  0
 23 24  1  0  0  0  0
 23 25  1  0  0  0  0
 24 67  1  0  0  0  0
 24 68  1  0  0  0  0
 25 26  1  0  0  0  0
 25 40  2  0  0  0  0
 26 27  1  0  0  0  0
 26 69  1  0  0  0  0
 26 70  1  0  0  0  0
 27 28  1  0  0  0  0
 27 71  1  0  0  0  0
 27 72  1  0  0  0  0
 28 29  1  0  0  0  0
 28 73  1  0  0  0  0
 28 74  1  0  0  0  0
 29 30  1  0  0  0  0
 29 75  1  0  0  0  0
 29 76  1  0  0  0  0
 30 31  1  0  0  0  0
 30 77  1  0  0  0  0
 31 36  1  0  0  0  0
 31 32  2  0  0  0  0
 32 33  1  0  0  0  0
 32 78  1  0  0  0  0
 33 34  2  0  0  0  0
 33 79  1  0  0  0  0
 34 35  1  0  0  0  0
 34 80  1  0  0  0  0
 35 36  2  0  0  0  0
 35 37  1  0  0  0  0
 36 81  1  0  0  0  0
 37 38  2  0  0  0  0
 37 39  1  0  0  0  0
 39 82  1  0  0  0  0
 40 83  1  0  0  0  0
M  CHG  1  13   1
M  END
>  <s_m_source_file>
BACE_116.smi

>  <i_m_source_file_index>
1

>  <i_lp_mmshare_version>
42013

>  <i_f3d_flags>
0

>  <s_epik_input>
W0NIM11bQ0hdKFtDSDNdKWMxW2NIXVtjSF1bY0hdYyhbY0hdMSlDKFtDSDNdKShbQ0gzXSlbTkhdW0NIMl1bQ0BASF0oW09IXSlbQ0BIXShbQ0gyXTIpW05IXUMoPU8pYyhbY0hdMylbY0hdW2NIXVtjSF1jM1tOSF1bQ0gyXVtDSDJdW0NIMl1bQ0gyXWMoW2NIXTQpYyhbTkgyXSljKEYpW2NIXWMyNA==

>  <s_epik_cmdline>
J2VwaWtfcHl0aG9uJywgJy1waCcsICc3LjAnLCAnLXRuJywgJzgnLCAnLW1hJywgJzIwMCcsICctaW1hZScsICc8aW5maWxlLm1hZT4nLCAnLW9tYWUnLCAnPG91dGZpbGUubWFlPic=

>  <r_epik_Ionization_Penalty>
0.0210

>  <r_epik_Ionization_Penalty_Charging>
0.0191

>  <r_epik_Ionization_Penalty_Neutral>
0.0019

>  <r_epik_State_Penalty>
0.0153

>  <r_epik_Charging_Adjusted_Penalty>
0.0343718

>  <i_epik_Tot_Q>
1

>  <i_epik_Tot_abs_Q>
1

>  <s_lp_Force_Field>
OPLS_2005

>  <r_lp_Energy>
36.8855

>  <b_lp_Chiralities_Consistent>
1

>  <s_lp_Variant>
BACE_116.smi:1-1

>  <chiral flag>
1

>  <version>
0

>  <s_i_glide_gridfile>
second_dock_grid_2

>  <i_i_glide_lignum>
236

>  <i_i_glide_rotatable_bonds>
7

>  <r_i_docking_score>
-5.25927

>  <r_i_glide_ligand_efficiency>
-0.131482

>  <r_i_glide_ligand_efficiency_sa>
-0.449661

>  <r_i_glide_ligand_efficiency_ln>
-1.12165

>  <r_glide_XP_GScore>
-5.27457

>  <r_i_glide_gscore>
-5.27457

>  <r_i_glide_evdw>
-40.3207

>  <r_i_glide_ecoul>
-11.3642

>  <r_i_glide_energy>
-51.6849

>  <r_i_glide_einternal>
3.56518

>  <r_i_glide_emodel>
-65.5932

>  <r_glide_XP_HBond>
-0.507005

>  <i_i_glide_confnum>
1

>  <i_i_glide_posenum>
1

>  <r_i_glide_eff_state_penalty>
0.0153

>  <i_glide_XP_PoseRank>
1

$$$$
