BACE_100.smi:1
 OpenBabel09291822493D
Structure written by MMmdl.
 80 83  0  0  1  0  0  0  0  0999 V2000
   21.2013   39.5367  -12.6953 C   0  0  0  0  0  0  0  0  0  0  0  0
   21.1439   40.9377  -12.8613 O   0  0  0  0  0  0  0  0  0  0  0  0
   20.2297   41.6484  -12.1258 C   0  0  0  0  0  0  0  0  0  0  0  0
   18.8694   41.2817  -12.0376 C   0  0  0  0  0  0  0  0  0  0  0  0
   17.9437   42.1526  -11.4444 C   0  0  0  0  0  0  0  0  0  0  0  0
   18.3699   43.3875  -10.9220 C   0  0  0  0  0  0  0  0  0  0  0  0
   17.3810   44.3203  -10.2336 C   0  0  0  0  0  0  0  0  0  0  0  0
   17.1665   43.9846   -8.7405 C   0  0  2  0  0  0  0  0  0  0  0  0
   18.4408   43.6202   -8.1132 N   0  0  0  0  0  0  0  0  0  0  0  0
   19.0101   44.1776   -7.0349 C   0  0  0  0  0  0  0  0  0  0  0  0
   18.5506   45.1552   -6.4402 O   0  0  0  0  0  0  0  0  0  0  0  0
   20.2212   43.4466   -6.5304 C   0  0  0  0  0  0  0  0  0  0  0  0
   20.4602   43.3246   -5.1480 C   0  0  0  0  0  0  0  0  0  0  0  0
   21.5858   42.6008   -4.7140 C   0  0  0  0  0  0  0  0  0  0  0  0
   21.8636   42.4310   -3.0208 Cl  0  0  0  0  0  0  0  0  0  0  0  0
   22.4588   42.0274   -5.5697 N   0  0  0  0  0  0  0  0  0  0  0  0
   22.2564   42.1638   -6.8953 C   0  0  0  0  0  0  0  0  0  0  0  0
   21.1511   42.8688   -7.4246 C   0  0  0  0  0  0  0  0  0  0  0  0
   23.2236   41.5521   -7.7017 N   0  0  0  0  0  0  0  0  0  0  0  0
   23.4153   41.9484   -9.0901 C   0  0  0  0  0  0  0  0  0  0  0  0
   24.0359   43.3546   -9.2080 C   0  0  0  0  0  0  0  0  0  0  0  0
   24.0227   43.9403  -10.6309 C   0  0  0  0  0  0  0  0  0  0  0  0
   22.6072   44.2845  -11.1234 C   0  0  0  0  0  0  0  0  0  0  0  0
   22.0297   43.0931  -11.6398 O   0  0  0  0  0  0  0  0  0  0  0  0
   20.6743   42.8605  -11.5598 C   0  0  0  0  0  0  0  0  0  0  0  0
   19.7322   43.7419  -10.9811 C   0  0  0  0  0  0  0  0  0  0  0  0
   16.0890   42.8698   -8.5576 C   0  0  2  0  0  0  0  0  0  0  0  0
   14.8276   43.4943   -8.4400 O   0  0  0  0  0  0  0  0  0  0  0  0
   16.3239   41.9431   -7.3482 C   0  0  0  0  0  0  0  0  0  0  0  0
   15.2598   40.9226   -7.1748 N   0  3  0  0  0  0  0  0  0  0  0  0
   15.6910   39.6145   -6.6374 C   0  0  0  0  0  0  0  0  0  0  0  0
   16.7104   38.9412   -7.5462 C   0  0  0  0  0  0  0  0  0  0  0  0
   18.0928   39.1379   -7.3398 C   0  0  0  0  0  0  0  0  0  0  0  0
   19.0479   38.6354   -8.2483 C   0  0  0  0  0  0  0  0  0  0  0  0
   18.5952   37.8229   -9.3173 C   0  0  0  0  0  0  0  0  0  0  0  0
   17.2219   37.5722   -9.4887 C   0  0  0  0  0  0  0  0  0  0  0  0
   16.2762   38.1449   -8.6211 C   0  0  0  0  0  0  0  0  0  0  0  0
   20.5147   39.0476   -8.0863 C   0  0  0  0  0  0  0  0  0  0  0  0
   21.4711   38.4432   -9.1228 C   0  0  0  0  0  0  0  0  0  0  0  0
   21.0508   38.7798   -6.6749 C   0  0  0  0  0  0  0  0  0  0  0  0
   16.7901   44.8874   -8.2552 H   0  0  0  0  0  0  0  0  0  0  0  0
   16.0474   42.2383   -9.4400 H   0  0  0  0  0  0  0  0  0  0  0  0
   21.5089   39.0643  -13.6273 H   0  0  0  0  0  0  0  0  0  0  0  0
   20.2713   39.0717  -12.3656 H   0  0  0  0  0  0  0  0  0  0  0  0
   21.9688   39.3497  -11.9500 H   0  0  0  0  0  0  0  0  0  0  0  0
   18.5120   40.3504  -12.4437 H   0  0  0  0  0  0  0  0  0  0  0  0
   16.9042   41.8654  -11.4072 H   0  0  0  0  0  0  0  0  0  0  0  0
   17.7675   45.3380  -10.3167 H   0  0  0  0  0  0  0  0  0  0  0  0
   16.4336   44.3198  -10.7742 H   0  0  0  0  0  0  0  0  0  0  0  0
   18.9264   42.8293   -8.5105 H   0  0  0  0  0  0  0  0  0  0  0  0
   19.7825   43.7519   -4.4249 H   0  0  0  0  0  0  0  0  0  0  0  0
   21.0116   42.9616   -8.4893 H   0  0  0  0  0  0  0  0  0  0  0  0
   23.9925   41.0880   -7.2391 H   0  0  0  0  0  0  0  0  0  0  0  0
   24.0709   41.2220   -9.5715 H   0  0  0  0  0  0  0  0  0  0  0  0
   22.4645   41.8716   -9.6107 H   0  0  0  0  0  0  0  0  0  0  0  0
   23.5217   44.0525   -8.5452 H   0  0  0  0  0  0  0  0  0  0  0  0
   25.0654   43.3107   -8.8480 H   0  0  0  0  0  0  0  0  0  0  0  0
   24.6149   44.8559  -10.6218 H   0  0  0  0  0  0  0  0  0  0  0  0
   24.5195   43.2675  -11.3315 H   0  0  0  0  0  0  0  0  0  0  0  0
   22.0628   44.7395  -10.2984 H   0  0  0  0  0  0  0  0  0  0  0  0
   22.6541   45.0174  -11.9293 H   0  0  0  0  0  0  0  0  0  0  0  0
   20.0230   44.6918  -10.5657 H   0  0  0  0  0  0  0  0  0  0  0  0
   14.7936   43.8700   -7.5705 H   0  0  0  0  0  0  0  0  0  0  0  0
   17.2786   41.4649   -7.5136 H   0  0  0  0  0  0  0  0  0  0  0  0
   16.4625   42.5158   -6.4400 H   0  0  0  0  0  0  0  0  0  0  0  0
   14.5776   41.2992   -6.5183 H   0  0  0  0  0  0  0  0  0  0  0  0
   16.0924   39.7500   -5.6402 H   0  0  0  0  0  0  0  0  0  0  0  0
   14.8212   38.9651   -6.5217 H   0  0  0  0  0  0  0  0  0  0  0  0
   18.4149   39.7467   -6.5089 H   0  0  0  0  0  0  0  0  0  0  0  0
   19.2854   37.3965  -10.0279 H   0  0  0  0  0  0  0  0  0  0  0  0
   16.8863   36.9521  -10.3075 H   0  0  0  0  0  0  0  0  0  0  0  0
   15.2221   37.9688   -8.7787 H   0  0  0  0  0  0  0  0  0  0  0  0
   20.5294   40.1251   -8.2430 H   0  0  0  0  0  0  0  0  0  0  0  0
   21.1356   38.6759  -10.1280 H   0  0  0  0  0  0  0  0  0  0  0  0
   21.5404   37.3625   -9.0368 H   0  0  0  0  0  0  0  0  0  0  0  0
   22.4783   38.8479   -9.0139 H   0  0  0  0  0  0  0  0  0  0  0  0
   20.5198   39.3505   -5.9145 H   0  0  0  0  0  0  0  0  0  0  0  0
   22.1050   39.0429   -6.5932 H   0  0  0  0  0  0  0  0  0  0  0  0
   20.9545   37.7268   -6.4401 H   0  0  0  0  0  0  0  0  0  0  0  0
   14.8011   40.7623   -8.0591 H   0  0  0  0  0  0  0  0  0  0  0  0
  1  2  1  0  0  0  0
  1 43  1  0  0  0  0
  1 44  1  0  0  0  0
  1 45  1  0  0  0  0
  2  3  1  0  0  0  0
  3 25  1  0  0  0  0
  3  4  2  0  0  0  0
  4  5  1  0  0  0  0
  4 46  1  0  0  0  0
  5  6  2  0  0  0  0
  5 47  1  0  0  0  0
  6 26  1  0  0  0  0
  6  7  1  0  0  0  0
  7  8  1  0  0  0  0
  7 48  1  0  0  0  0
  7 49  1  0  0  0  0
  8 41  1  1  0  0  0
  8  9  1  0  0  0  0
  8 27  1  0  0  0  0
  9 10  1  0  0  0  0
  9 50  1  0  0  0  0
 10 11  2  0  0  0  0
 10 12  1  0  0  0  0
 12 18  1  0  0  0  0
 12 13  2  0  0  0  0
 13 14  1  0  0  0  0
 13 51  1  0  0  0  0
 14 15  1  0  0  0  0
 14 16  2  0  0  0  0
 16 17  1  0  0  0  0
 17 18  2  0  0  0  0
 17 19  1  0  0  0  0
 18 52  1  0  0  0  0
 19 20  1  0  0  0  0
 19 53  1  0  0  0  0
 20 21  1  0  0  0  0
 20 54  1  0  0  0  0
 20 55  1  0  0  0  0
 21 22  1  0  0  0  0
 21 56  1  0  0  0  0
 21 57  1  0  0  0  0
 22 23  1  0  0  0  0
 22 58  1  0  0  0  0
 22 59  1  0  0  0  0
 23 24  1  0  0  0  0
 23 60  1  0  0  0  0
 23 61  1  0  0  0  0
 24 25  1  0  0  0  0
 25 26  2  0  0  0  0
 26 62  1  0  0  0  0
 27 42  1  6  0  0  0
 27 28  1  0  0  0  0
 27 29  1  0  0  0  0
 28 63  1  0  0  0  0
 29 30  1  0  0  0  0
 29 64  1  0  0  0  0
 29 65  1  0  0  0  0
 30 31  1  0  0  0  0
 30 66  1  0  0  0  0
 30 80  1  0  0  0  0
 31 32  1  0  0  0  0
 31 67  1  0  0  0  0
 31 68  1  0  0  0  0
 32 37  1  0  0  0  0
 32 33  2  0  0  0  0
 33 34  1  0  0  0  0
 33 69  1  0  0  0  0
 34 35  2  0  0  0  0
 34 38  1  0  0  0  0
 35 36  1  0  0  0  0
 35 70  1  0  0  0  0
 36 37  2  0  0  0  0
 36 71  1  0  0  0  0
 37 72  1  0  0  0  0
 38 39  1  0  0  0  0
 38 40  1  0  0  0  0
 38 73  1  0  0  0  0
 39 74  1  0  0  0  0
 39 75  1  0  0  0  0
 39 76  1  0  0  0  0
 40 77  1  0  0  0  0
 40 78  1  0  0  0  0
 40 79  1  0  0  0  0
M  CHG  1  30   1
M  END
>  <s_m_source_file>
BACE_100.smi

>  <i_m_source_file_index>
1

>  <i_lp_mmshare_version>
42013

>  <i_f3d_flags>
0

>  <s_epik_input>
YzEyW2NIXVtjSF1jKE9bQ0gzXSljKFtjSF0yKU9bQ0gyXVtDSDJdW0NIMl1bQ0gyXVtOSF1jM25jKENsKVtjSF1jKFtjSF0zKUMoPU8pW05IXVtDQEBIXShbQ0gyXTEpW0NASF0oW09IXSlbQ0gyXVtOSF1bQ0gyXWM0W2NIXWMoW0NIXShbQ0gzXSlbQ0gzXSlbY0hdW2NIXVtjSF00

>  <s_epik_cmdline>
J2VwaWtfcHl0aG9uJywgJy1waCcsICc3LjAnLCAnLXRuJywgJzgnLCAnLW1hJywgJzIwMCcsICctaW1hZScsICc8aW5maWxlLm1hZT4nLCAnLW9tYWUnLCAnPG91dGZpbGUubWFlPic=

>  <r_lp_tautomer_probability>
1

>  <r_epik_Ionization_Penalty>
0.0201

>  <r_epik_Ionization_Penalty_Charging>
0.0201

>  <r_epik_Ionization_Penalty_Neutral>
0.0000

>  <r_epik_State_Penalty>
0.0161

>  <r_epik_Charging_Adjusted_Penalty>
0.0361071

>  <i_epik_Tot_Q>
1

>  <i_epik_Tot_abs_Q>
1

>  <s_lp_Force_Field>
OPLS_2005

>  <r_lp_Energy>
27.5194

>  <b_lp_Chiralities_Consistent>
1

>  <s_lp_Variant>
BACE_100.smi:1-1

>  <chiral flag>
1

>  <version>
0

>  <s_i_glide_gridfile>
second_dock_grid_2

>  <i_i_glide_lignum>
204

>  <i_i_glide_rotatable_bonds>
8

>  <r_i_docking_score>
-7.24097

>  <r_i_glide_ligand_efficiency>
-0.181024

>  <r_i_glide_ligand_efficiency_sa>
-0.619094

>  <r_i_glide_ligand_efficiency_ln>
-1.54429

>  <r_glide_XP_GScore>
-7.25707

>  <r_i_glide_gscore>
-7.25707

>  <r_i_glide_evdw>
-44.5369

>  <r_i_glide_ecoul>
-13.3055

>  <r_i_glide_energy>
-57.8424

>  <r_i_glide_einternal>
12.8736

>  <r_i_glide_emodel>
-68.4147

>  <r_glide_XP_HBond>
-1.64366

>  <i_i_glide_confnum>
1

>  <i_i_glide_posenum>
3

>  <r_i_glide_eff_state_penalty>
0.0161

>  <i_glide_XP_PoseRank>
1

$$$$
