BACE_141.smi:1
 OpenBabel09291822493D
Structure written by MMmdl.
 81 84  0  0  1  0  0  0  0  0999 V2000
   32.2390   41.1504  -15.7797 C   0  0  0  0  0  0  0  0  0  0  0  0
   31.1526   42.1356  -15.3244 C   0  0  0  0  0  0  0  0  0  0  0  0
   31.0110   42.2070  -13.8142 C   0  0  0  0  0  0  0  0  0  0  0  0
   29.7597   42.0837  -13.1750 C   0  0  0  0  0  0  0  0  0  0  0  0
   29.7609   42.2285  -11.7713 C   0  0  0  0  0  0  0  0  0  0  0  0
   28.4868   42.3038  -10.9577 C   0  0  0  0  0  0  0  0  0  0  0  0
   27.4494   41.3500  -11.4040 N   0  3  0  0  0  0  0  0  0  0  0  0
   26.1912   41.3673  -10.6202 C   0  0  0  0  0  0  0  0  0  0  0  0
   25.5904   42.7892  -10.4868 C   0  0  1  0  0  0  0  0  0  0  0  0
   25.4553   43.3497  -11.7806 O   0  0  0  0  0  0  0  0  0  0  0  0
   24.2384   42.9057   -9.7500 C   0  0  2  0  0  0  0  0  0  0  0  0
   24.2930   42.4791   -8.2618 C   0  0  0  0  0  0  0  0  0  0  0  0
   22.9117   42.2525   -7.6640 C   0  0  0  0  0  0  0  0  0  0  0  0
   22.4610   40.9433   -7.3894 C   0  0  0  0  0  0  0  0  0  0  0  0
   21.1438   40.7086   -6.9484 C   0  0  0  0  0  0  0  0  0  0  0  0
   20.2797   41.8194   -6.7735 C   0  0  0  0  0  0  0  0  0  0  0  0
   20.7333   43.1283   -7.0143 C   0  0  0  0  0  0  0  0  0  0  0  0
   22.0488   43.3476   -7.4569 C   0  0  0  0  0  0  0  0  0  0  0  0
   20.7902   39.3945   -6.7203 O   0  0  0  0  0  0  0  0  0  0  0  0
   19.4084   39.0518   -6.6515 C   0  0  0  0  0  0  0  0  0  0  0  0
   18.7832   39.0448   -8.0551 C   0  0  0  0  0  0  0  0  0  0  0  0
   19.2657   37.8465   -8.8839 C   0  0  0  0  0  0  0  0  0  0  0  0
   18.8290   37.8589  -10.3520 C   0  0  0  0  0  0  0  0  0  0  0  0
   19.7699   38.5505  -11.1612 O   0  0  0  0  0  0  0  0  0  0  0  0
   19.6936   39.9155  -11.2185 C   0  0  0  0  0  0  0  0  0  0  0  0
   18.4736   40.6263  -11.2523 C   0  0  0  0  0  0  0  0  0  0  0  0
   18.4720   42.0339  -11.3127 C   0  0  0  0  0  0  0  0  0  0  0  0
   19.6968   42.7324  -11.3263 C   0  0  0  0  0  0  0  0  0  0  0  0
   20.9214   42.0295  -11.2660 C   0  0  0  0  0  0  0  0  0  0  0  0
   20.9077   40.6194  -11.2543 C   0  0  0  0  0  0  0  0  0  0  0  0
   22.2158   42.7799  -11.1809 C   0  0  0  0  0  0  0  0  0  0  0  0
   22.3255   43.9149  -11.6399 O   0  0  0  0  0  0  0  0  0  0  0  0
   23.1649   42.1876  -10.4398 N   0  0  0  0  0  0  0  0  0  0  0  0
   17.1715   42.7770  -11.3761 C   0  0  0  0  0  0  0  0  0  0  0  0
   16.8607   43.3508  -12.4234 O   0  0  0  0  0  0  0  0  0  0  0  0
   16.3758   42.7454  -10.2792 N   0  0  0  0  0  0  0  0  0  0  0  0
   15.0442   43.3568  -10.2880 C   0  0  0  0  0  0  0  0  0  0  0  0
   16.7750   42.1731   -8.9885 C   0  0  0  0  0  0  0  0  0  0  0  0
   30.8957   42.4456  -11.0811 N   0  0  0  0  0  0  0  0  0  0  0  0
   32.0155   42.5672  -11.7948 C   0  0  0  0  0  0  0  0  0  0  0  0
   32.1323   42.4769  -13.1160 N   0  0  0  0  0  0  0  0  0  0  0  0
   26.2818   43.4218   -9.9313 H   0  0  0  0  0  0  0  0  0  0  0  0
   23.9725   43.9655   -9.7320 H   0  0  0  0  0  0  0  0  0  0  0  0
   32.2626   41.0759  -16.8666 H   0  0  0  0  0  0  0  0  0  0  0  0
   32.0599   40.1510  -15.3811 H   0  0  0  0  0  0  0  0  0  0  0  0
   33.2280   41.4676  -15.4464 H   0  0  0  0  0  0  0  0  0  0  0  0
   31.3715   43.1340  -15.7026 H   0  0  0  0  0  0  0  0  0  0  0  0
   30.1970   41.8374  -15.7580 H   0  0  0  0  0  0  0  0  0  0  0  0
   28.8603   41.9272  -13.7502 H   0  0  0  0  0  0  0  0  0  0  0  0
   28.7040   42.1500   -9.8996 H   0  0  0  0  0  0  0  0  0  0  0  0
   28.1395   43.3292  -11.0668 H   0  0  0  0  0  0  0  0  0  0  0  0
   27.2271   41.5739  -12.3623 H   0  0  0  0  0  0  0  0  0  0  0  0
   25.4824   40.6931  -11.0992 H   0  0  0  0  0  0  0  0  0  0  0  0
   26.4034   40.9414   -9.6401 H   0  0  0  0  0  0  0  0  0  0  0  0
   24.6098   43.0921  -12.1278 H   0  0  0  0  0  0  0  0  0  0  0  0
   24.8600   41.5564   -8.1557 H   0  0  0  0  0  0  0  0  0  0  0  0
   24.8246   43.2271   -7.6719 H   0  0  0  0  0  0  0  0  0  0  0  0
   23.1168   40.0989   -7.5489 H   0  0  0  0  0  0  0  0  0  0  0  0
   19.2608   41.7034   -6.4402 H   0  0  0  0  0  0  0  0  0  0  0  0
   20.0647   43.9637   -6.8706 H   0  0  0  0  0  0  0  0  0  0  0  0
   22.3832   44.3532   -7.6645 H   0  0  0  0  0  0  0  0  0  0  0  0
   19.3219   38.0575   -6.2138 H   0  0  0  0  0  0  0  0  0  0  0  0
   18.8601   39.7008   -5.9767 H   0  0  0  0  0  0  0  0  0  0  0  0
   17.6979   38.9934   -7.9617 H   0  0  0  0  0  0  0  0  0  0  0  0
   19.0012   39.9831   -8.5612 H   0  0  0  0  0  0  0  0  0  0  0  0
   20.3515   37.7509   -8.8276 H   0  0  0  0  0  0  0  0  0  0  0  0
   18.8533   36.9498   -8.4292 H   0  0  0  0  0  0  0  0  0  0  0  0
   18.8600   36.8370  -10.7098 H   0  0  0  0  0  0  0  0  0  0  0  0
   17.7932   38.1730  -10.4675 H   0  0  0  0  0  0  0  0  0  0  0  0
   17.5285   40.1060  -11.2643 H   0  0  0  0  0  0  0  0  0  0  0  0
   19.6945   43.8132  -11.3512 H   0  0  0  0  0  0  0  0  0  0  0  0
   21.8295   40.0563  -11.2319 H   0  0  0  0  0  0  0  0  0  0  0  0
   22.9593   41.2603  -10.0980 H   0  0  0  0  0  0  0  0  0  0  0  0
   14.5804   43.3325  -11.2756 H   0  0  0  0  0  0  0  0  0  0  0  0
   15.1083   44.3985   -9.9672 H   0  0  0  0  0  0  0  0  0  0  0  0
   14.3655   42.8337   -9.6101 H   0  0  0  0  0  0  0  0  0  0  0  0
   17.8101   42.4133   -8.7401 H   0  0  0  0  0  0  0  0  0  0  0  0
   16.6658   41.0883   -9.0047 H   0  0  0  0  0  0  0  0  0  0  0  0
   16.1623   42.5518   -8.1692 H   0  0  0  0  0  0  0  0  0  0  0  0
   32.9229   42.7577  -11.2407 H   0  0  0  0  0  0  0  0  0  0  0  0
   27.8367   40.4096  -11.3538 H   0  0  0  0  0  0  0  0  0  0  0  0
  1  2  1  0  0  0  0
  1 44  1  0  0  0  0
  1 45  1  0  0  0  0
  1 46  1  0  0  0  0
  2  3  1  0  0  0  0
  2 47  1  0  0  0  0
  2 48  1  0  0  0  0
  3 41  1  0  0  0  0
  3  4  2  0  0  0  0
  4  5  1  0  0  0  0
  4 49  1  0  0  0  0
  5  6  1  0  0  0  0
  5 39  2  0  0  0  0
  6  7  1  0  0  0  0
  6 50  1  0  0  0  0
  6 51  1  0  0  0  0
  7  8  1  0  0  0  0
  7 52  1  0  0  0  0
  7 81  1  0  0  0  0
  8  9  1  0  0  0  0
  8 53  1  0  0  0  0
  8 54  1  0  0  0  0
  9 42  1  1  0  0  0
  9 10  1  0  0  0  0
  9 11  1  0  0  0  0
 10 55  1  0  0  0  0
 11 43  1  6  0  0  0
 11 33  1  0  0  0  0
 11 12  1  0  0  0  0
 12 13  1  0  0  0  0
 12 56  1  0  0  0  0
 12 57  1  0  0  0  0
 13 18  1  0  0  0  0
 13 14  2  0  0  0  0
 14 15  1  0  0  0  0
 14 58  1  0  0  0  0
 15 16  2  0  0  0  0
 15 19  1  0  0  0  0
 16 17  1  0  0  0  0
 16 59  1  0  0  0  0
 17 18  2  0  0  0  0
 17 60  1  0  0  0  0
 18 61  1  0  0  0  0
 19 20  1  0  0  0  0
 20 21  1  0  0  0  0
 20 62  1  0  0  0  0
 20 63  1  0  0  0  0
 21 22  1  0  0  0  0
 21 64  1  0  0  0  0
 21 65  1  0  0  0  0
 22 23  1  0  0  0  0
 22 66  1  0  0  0  0
 22 67  1  0  0  0  0
 23 24  1  0  0  0  0
 23 68  1  0  0  0  0
 23 69  1  0  0  0  0
 24 25  1  0  0  0  0
 25 30  1  0  0  0  0
 25 26  2  0  0  0  0
 26 27  1  0  0  0  0
 26 70  1  0  0  0  0
 27 28  2  0  0  0  0
 27 34  1  0  0  0  0
 28 29  1  0  0  0  0
 28 71  1  0  0  0  0
 29 30  2  0  0  0  0
 29 31  1  0  0  0  0
 30 72  1  0  0  0  0
 31 32  2  0  0  0  0
 31 33  1  0  0  0  0
 33 73  1  0  0  0  0
 34 35  2  0  0  0  0
 34 36  1  0  0  0  0
 36 37  1  0  0  0  0
 36 38  1  0  0  0  0
 37 74  1  0  0  0  0
 37 75  1  0  0  0  0
 37 76  1  0  0  0  0
 38 77  1  0  0  0  0
 38 78  1  0  0  0  0
 38 79  1  0  0  0  0
 39 40  1  0  0  0  0
 40 41  2  0  0  0  0
 40 80  1  0  0  0  0
M  CHG  1   7   1
M  END
>  <s_m_source_file>
BACE_141.smi

>  <i_m_source_file_index>
1

>  <i_lp_mmshare_version>
42013

>  <i_f3d_flags>
0

>  <s_epik_input>
W0NIM11bQ0gyXWMxW2NIXWMobltjSF1uMSlbQ0gyXVtOSF1bQ0gyXVtDQEBIXShbT0hdKVtDQEhdKFtDSDJdMilbTkhdQyg9TyljKFtjSF0zKVtjSF1jKEMoPU8pTihbQ0gzXSlbQ0gzXSlbY0hdYzNPW0NIMl1bQ0gyXVtDSDJdW0NIMl1PYyhbY0hdYzI0KVtjSF1bY0hdW2NIXTQ=

>  <s_epik_cmdline>
J2VwaWtfcHl0aG9uJywgJy1waCcsICc3LjAnLCAnLXRuJywgJzgnLCAnLW1hJywgJzIwMCcsICctaW1hZScsICc8aW5maWxlLm1hZT4nLCAnLW9tYWUnLCAnPG91dGZpbGUubWFlPic=

>  <r_lp_tautomer_probability>
1

>  <r_epik_Ionization_Penalty>
0.1034

>  <r_epik_Ionization_Penalty_Charging>
0.1034

>  <r_epik_Ionization_Penalty_Neutral>
0.0000

>  <r_epik_State_Penalty>
0.0933

>  <r_epik_Charging_Adjusted_Penalty>
0.196746

>  <i_epik_Tot_Q>
1

>  <i_epik_Tot_abs_Q>
1

>  <s_epik_Chemistry_Notes>
This compound contains an electron-poor aromatic ring that is susceptible to covalent hydrolysis at low pH, typically resulting in measured values for nitrogen ring protonation that are around two units higher than predicted values.

>  <s_lp_Force_Field>
OPLS_2005

>  <r_lp_Energy>
28.7943

>  <b_lp_Chiralities_Consistent>
1

>  <s_lp_Variant>
BACE_141.smi:1-1

>  <chiral flag>
1

>  <version>
0

>  <s_i_glide_gridfile>
second_dock_grid_2

>  <i_i_glide_lignum>
289

>  <i_i_glide_rotatable_bonds>
9

>  <r_i_docking_score>
-5.27123

>  <r_i_glide_ligand_efficiency>
-0.128567

>  <r_i_glide_ligand_efficiency_sa>
-0.443326

>  <r_i_glide_ligand_efficiency_ln>
-1.11831

>  <r_glide_XP_GScore>
-5.36453

>  <r_i_glide_gscore>
-5.36453

>  <r_i_glide_evdw>
-41.6487

>  <r_i_glide_ecoul>
-14.6337

>  <r_i_glide_energy>
-56.2824

>  <r_i_glide_einternal>
7.39648

>  <r_i_glide_emodel>
-72.2781

>  <r_glide_XP_HBond>
-1.18

>  <i_i_glide_confnum>
1

>  <i_i_glide_posenum>
30

>  <r_i_glide_eff_state_penalty>
0.0933

>  <i_glide_XP_PoseRank>
1

$$$$
