BACE_30.smi:1
 OpenBabel09291822493D
Structure written by MMmdl.
 90 91  0  0  1  0  0  0  0  0999 V2000
   14.9177   38.3598   -9.0699 C   0  0  0  0  0  0  0  0  0  0  0  0
   16.1123   38.3980   -8.0929 C   0  0  2  0  0  0  0  0  0  0  0  0
   15.9619   39.3542   -6.9596 N   0  3  0  0  0  0  0  0  0  0  0  0
   15.5069   40.7652   -7.1665 C   0  0  0  0  0  0  0  0  0  0  0  0
   15.7214   41.4461   -8.5533 C   0  0  1  0  0  0  0  0  0  0  0  0
   14.4600   41.5603   -9.1973 O   0  0  0  0  0  0  0  0  0  0  0  0
   16.3819   42.8608   -8.4723 C   0  0  2  0  0  0  0  0  0  0  0  0
   16.2054   43.6611   -9.8007 C   0  0  0  0  0  0  0  0  0  0  0  0
   16.6843   45.1295   -9.8238 C   0  0  2  0  0  0  0  0  0  0  0  0
   15.9330   45.9666   -8.7689 C   0  0  0  0  0  0  0  0  0  0  0  0
   16.4739   45.7188  -11.2405 C   0  0  0  0  0  0  0  0  0  0  0  0
   17.3273   46.9608  -11.5512 C   0  0  0  0  0  0  0  0  0  0  0  0
   18.7603   46.6078  -11.9848 C   0  0  0  0  0  0  0  0  0  0  0  0
   19.6816   47.8305  -12.1604 C   0  0  0  0  0  0  0  0  0  0  0  0
   19.9706   48.6318  -10.8719 C   0  0  0  0  0  0  0  0  0  0  0  0
   20.4615   47.7955   -9.6750 C   0  0  0  0  0  0  0  0  0  0  0  0
   21.8006   47.0706   -9.9212 C   0  0  0  0  0  0  0  0  0  0  0  0
   22.1990   46.1090   -8.7818 C   0  0  0  0  0  0  0  0  0  0  0  0
   21.2708   44.8787   -8.6740 C   0  0  0  0  0  0  0  0  0  0  0  0
   20.8853   44.3646   -9.7263 O   0  0  0  0  0  0  0  0  0  0  0  0
   20.9166   44.3780   -7.4596 N   0  0  0  0  0  0  0  0  0  0  0  0
   21.2127   45.1036   -6.2122 C   0  0  0  0  0  0  0  0  0  0  0  0
   20.0915   43.1429   -7.3991 C   0  0  1  0  0  0  0  0  0  0  0  0
   20.3764   42.3028   -6.1335 C   0  0  0  0  0  0  0  0  0  0  0  0
   18.5932   43.4982   -7.4489 C   0  0  0  0  0  0  0  0  0  0  0  0
   18.1691   44.4796   -6.8400 O   0  0  0  0  0  0  0  0  0  0  0  0
   17.8140   42.7040   -8.2018 N   0  0  0  0  0  0  0  0  0  0  0  0
   17.4647   38.4999   -8.7567 C   0  0  0  0  0  0  0  0  0  0  0  0
   18.5230   39.4274   -8.5324 C   0  0  0  0  0  0  0  0  0  0  0  0
   19.4706   39.0741   -9.4517 C   0  0  0  0  0  0  0  0  0  0  0  0
   20.7836   39.6735   -9.8500 C   0  0  0  0  0  0  0  0  0  0  0  0
   20.7723   40.5184  -11.1580 C   0  0  0  0  0  0  0  0  0  0  0  0
   20.7883   39.5984  -12.3914 C   0  0  0  0  0  0  0  0  0  0  0  0
   19.5301   41.4303  -11.2486 C   0  0  0  0  0  0  0  0  0  0  0  0
   22.0357   41.3962  -11.1929 C   0  0  0  0  0  0  0  0  0  0  0  0
   19.0754   37.9617  -10.1168 O   0  0  0  0  0  0  0  0  0  0  0  0
   17.8165   37.5846   -9.6400 N   0  0  0  0  0  0  0  0  0  0  0  0
   16.1119   37.4171   -7.6404 H   0  0  0  0  0  0  0  0  0  0  0  0
   16.3399   40.8443   -9.2132 H   0  0  0  0  0  0  0  0  0  0  0  0
   15.9112   43.4007   -7.6460 H   0  0  0  0  0  0  0  0  0  0  0  0
   17.7512   45.1522   -9.6017 H   0  0  0  0  0  0  0  0  0  0  0  0
   20.3365   42.4993   -8.2450 H   0  0  0  0  0  0  0  0  0  0  0  0
   13.9638   38.3934   -8.5410 H   0  0  0  0  0  0  0  0  0  0  0  0
   14.9340   37.4314   -9.6422 H   0  0  0  0  0  0  0  0  0  0  0  0
   14.9357   39.1585   -9.8059 H   0  0  0  0  0  0  0  0  0  0  0  0
   16.8600   39.3956   -6.5004 H   0  0  0  0  0  0  0  0  0  0  0  0
   16.0532   41.3527   -6.4332 H   0  0  0  0  0  0  0  0  0  0  0  0
   14.4622   40.8253   -6.8574 H   0  0  0  0  0  0  0  0  0  0  0  0
   13.8310   40.9497   -8.8297 H   0  0  0  0  0  0  0  0  0  0  0  0
   16.7084   43.1071  -10.5958 H   0  0  0  0  0  0  0  0  0  0  0  0
   15.1543   43.6908  -10.0856 H   0  0  0  0  0  0  0  0  0  0  0  0
   16.1333   47.0330   -8.8687 H   0  0  0  0  0  0  0  0  0  0  0  0
   16.2061   45.6896   -7.7534 H   0  0  0  0  0  0  0  0  0  0  0  0
   14.8600   45.8103   -8.8531 H   0  0  0  0  0  0  0  0  0  0  0  0
   16.6838   44.9635  -11.9986 H   0  0  0  0  0  0  0  0  0  0  0  0
   15.4184   45.9654  -11.3640 H   0  0  0  0  0  0  0  0  0  0  0  0
   17.3380   47.6266  -10.6910 H   0  0  0  0  0  0  0  0  0  0  0  0
   16.8540   47.5230  -12.3572 H   0  0  0  0  0  0  0  0  0  0  0  0
   19.2089   45.9049  -11.2831 H   0  0  0  0  0  0  0  0  0  0  0  0
   18.7146   46.0719  -12.9340 H   0  0  0  0  0  0  0  0  0  0  0  0
   19.2485   48.5021  -12.9036 H   0  0  0  0  0  0  0  0  0  0  0  0
   20.6258   47.4954  -12.5918 H   0  0  0  0  0  0  0  0  0  0  0  0
   20.7052   49.4069  -11.0958 H   0  0  0  0  0  0  0  0  0  0  0  0
   19.0686   49.1669  -10.5744 H   0  0  0  0  0  0  0  0  0  0  0  0
   19.6870   47.0823   -9.3944 H   0  0  0  0  0  0  0  0  0  0  0  0
   20.5734   48.4511   -8.8102 H   0  0  0  0  0  0  0  0  0  0  0  0
   21.7637   46.5142  -10.8589 H   0  0  0  0  0  0  0  0  0  0  0  0
   22.5892   47.8125  -10.0557 H   0  0  0  0  0  0  0  0  0  0  0  0
   22.2766   46.6835   -7.8607 H   0  0  0  0  0  0  0  0  0  0  0  0
   23.2033   45.7306   -8.9766 H   0  0  0  0  0  0  0  0  0  0  0  0
   20.7092   44.7051   -5.3358 H   0  0  0  0  0  0  0  0  0  0  0  0
   20.8756   46.1391   -6.2790 H   0  0  0  0  0  0  0  0  0  0  0  0
   22.2839   45.0940   -6.0075 H   0  0  0  0  0  0  0  0  0  0  0  0
   19.9815   41.2930   -6.2442 H   0  0  0  0  0  0  0  0  0  0  0  0
   19.9230   42.7139   -5.2306 H   0  0  0  0  0  0  0  0  0  0  0  0
   21.4486   42.2015   -5.9601 H   0  0  0  0  0  0  0  0  0  0  0  0
   18.2761   41.9510   -8.6887 H   0  0  0  0  0  0  0  0  0  0  0  0
   18.5703   40.2439   -7.8310 H   0  0  0  0  0  0  0  0  0  0  0  0
   21.1189   40.3014   -9.0250 H   0  0  0  0  0  0  0  0  0  0  0  0
   21.5346   38.8852   -9.9232 H   0  0  0  0  0  0  0  0  0  0  0  0
   21.6600   38.9507  -12.3944 H   0  0  0  0  0  0  0  0  0  0  0  0
   20.8052   40.1705  -13.3187 H   0  0  0  0  0  0  0  0  0  0  0  0
   19.9124   38.9549  -12.4182 H   0  0  0  0  0  0  0  0  0  0  0  0
   19.4615   42.0968  -10.3907 H   0  0  0  0  0  0  0  0  0  0  0  0
   18.6026   40.8601  -11.3043 H   0  0  0  0  0  0  0  0  0  0  0  0
   19.5700   42.0602  -12.1380 H   0  0  0  0  0  0  0  0  0  0  0  0
   22.0827   42.0678  -10.3362 H   0  0  0  0  0  0  0  0  0  0  0  0
   22.0706   42.0095  -12.0934 H   0  0  0  0  0  0  0  0  0  0  0  0
   22.9382   40.7852  -11.1791 H   0  0  0  0  0  0  0  0  0  0  0  0
   15.3306   38.9234   -6.2873 H   0  0  0  0  0  0  0  0  0  0  0  0
  1  2  1  0  0  0  0
  1 43  1  0  0  0  0
  1 44  1  0  0  0  0
  1 45  1  0  0  0  0
  2 38  1  1  0  0  0
  2  3  1  0  0  0  0
  2 28  1  0  0  0  0
  3  4  1  0  0  0  0
  3 46  1  0  0  0  0
  3 90  1  0  0  0  0
  4  5  1  0  0  0  0
  4 47  1  0  0  0  0
  4 48  1  0  0  0  0
  5 39  1  6  0  0  0
  5  6  1  0  0  0  0
  5  7  1  0  0  0  0
  6 49  1  0  0  0  0
  7 40  1  1  0  0  0
  7 27  1  0  0  0  0
  7  8  1  0  0  0  0
  8  9  1  0  0  0  0
  8 50  1  0  0  0  0
  8 51  1  0  0  0  0
  9 41  1  1  0  0  0
  9 10  1  0  0  0  0
  9 11  1  0  0  0  0
 10 52  1  0  0  0  0
 10 53  1  0  0  0  0
 10 54  1  0  0  0  0
 11 12  1  0  0  0  0
 11 55  1  0  0  0  0
 11 56  1  0  0  0  0
 12 13  1  0  0  0  0
 12 57  1  0  0  0  0
 12 58  1  0  0  0  0
 13 14  1  0  0  0  0
 13 59  1  0  0  0  0
 13 60  1  0  0  0  0
 14 15  1  0  0  0  0
 14 61  1  0  0  0  0
 14 62  1  0  0  0  0
 15 16  1  0  0  0  0
 15 63  1  0  0  0  0
 15 64  1  0  0  0  0
 16 17  1  0  0  0  0
 16 65  1  0  0  0  0
 16 66  1  0  0  0  0
 17 18  1  0  0  0  0
 17 67  1  0  0  0  0
 17 68  1  0  0  0  0
 18 19  1  0  0  0  0
 18 69  1  0  0  0  0
 18 70  1  0  0  0  0
 19 20  2  0  0  0  0
 19 21  1  0  0  0  0
 21 22  1  0  0  0  0
 21 23  1  0  0  0  0
 22 71  1  0  0  0  0
 22 72  1  0  0  0  0
 22 73  1  0  0  0  0
 23 42  1  6  0  0  0
 23 24  1  0  0  0  0
 23 25  1  0  0  0  0
 24 74  1  0  0  0  0
 24 75  1  0  0  0  0
 24 76  1  0  0  0  0
 25 26  2  0  0  0  0
 25 27  1  0  0  0  0
 27 77  1  0  0  0  0
 28 37  2  0  0  0  0
 28 29  1  0  0  0  0
 29 30  2  0  0  0  0
 29 78  1  0  0  0  0
 30 31  1  0  0  0  0
 30 36  1  0  0  0  0
 31 32  1  0  0  0  0
 31 79  1  0  0  0  0
 31 80  1  0  0  0  0
 32 33  1  0  0  0  0
 32 34  1  0  0  0  0
 32 35  1  0  0  0  0
 33 81  1  0  0  0  0
 33 82  1  0  0  0  0
 33 83  1  0  0  0  0
 34 84  1  0  0  0  0
 34 85  1  0  0  0  0
 34 86  1  0  0  0  0
 35 87  1  0  0  0  0
 35 88  1  0  0  0  0
 35 89  1  0  0  0  0
 36 37  1  0  0  0  0
M  CHG  1   3   1
M  END
>  <s_m_source_file>
BACE_30.smi

>  <i_m_source_file_index>
1

>  <i_lp_mmshare_version>
42013

>  <i_f3d_flags>
0

>  <s_epik_input>
W0NIM11DKFtDSDNdKShbQ0gzXSlbQ0gyXWMob24xKVtjSF1jMVtDQEhdKFtDSDNdKVtOSF1bQ0gyXVtDQEBIXShbT0hdKVtDQEBIXTJbQ0gyXVtDQEhdKFtDSDNdKVtDSDJdW0NIMl1bQ0gyXVtDSDJdW0NIMl1bQ0gyXVtDSDJdW0NIMl1DKD1PKU4oW0NIM10pW0NAQEhdKFtDSDNdKUMoPU8pW05IXTI=

>  <s_epik_cmdline>
J2VwaWtfcHl0aG9uJywgJy1waCcsICc3LjAnLCAnLXRuJywgJzgnLCAnLW1hJywgJzIwMCcsICctaW1hZScsICc8aW5maWxlLm1hZT4nLCAnLW9tYWUnLCAnPG91dGZpbGUubWFlPic=

>  <r_epik_Ionization_Penalty>
0.3898

>  <r_epik_Ionization_Penalty_Charging>
0.3898

>  <r_epik_Ionization_Penalty_Neutral>
0.0000

>  <r_epik_State_Penalty>
0.3884

>  <r_epik_Charging_Adjusted_Penalty>
0.778183

>  <i_epik_Tot_Q>
1

>  <i_epik_Tot_abs_Q>
1

>  <s_lp_Force_Field>
OPLS_2005

>  <r_lp_Energy>
33.3052

>  <b_lp_Chiralities_Consistent>
1

>  <s_lp_Variant>
BACE_30.smi:1-1

>  <chiral flag>
1

>  <version>
0

>  <s_i_glide_gridfile>
second_dock_grid_2

>  <i_i_glide_lignum>
51

>  <i_i_glide_rotatable_bonds>
8

>  <r_i_docking_score>
-4.61487

>  <r_i_glide_ligand_efficiency>
-0.124726

>  <r_i_glide_ligand_efficiency_sa>
-0.415616

>  <r_i_glide_ligand_efficiency_ln>
-1.00086

>  <r_glide_XP_GScore>
-5.00327

>  <r_i_glide_gscore>
-5.00327

>  <r_i_glide_evdw>
-31.8282

>  <r_i_glide_ecoul>
-15.4083

>  <r_i_glide_energy>
-47.2365

>  <r_i_glide_einternal>
11.5317

>  <r_i_glide_emodel>
-57.2261

>  <r_glide_XP_HBond>
-0.934529

>  <i_i_glide_confnum>
1

>  <i_i_glide_posenum>
8

>  <r_i_glide_eff_state_penalty>
0.3884

>  <i_glide_XP_PoseRank>
1

$$$$
