BACE_6.smi:1
 OpenBabel09291822493D
Structure written by MMmdl.
 82 84  0  0  1  0  0  0  0  0999 V2000
   14.0678   39.6611   -9.4366 C   0  0  0  0  0  0  0  0  0  0  0  0
   15.1841   39.2302  -10.3973 C   0  0  0  0  0  0  0  0  0  0  0  0
   16.4329   39.9650  -10.1484 N   0  0  0  0  0  0  0  0  0  0  0  0
   17.5212   39.1282   -9.6131 C   0  0  0  0  0  0  0  0  0  0  0  0
   17.3210   38.8168   -8.1190 C   0  0  0  0  0  0  0  0  0  0  0  0
   18.3934   37.8745   -7.5486 C   0  0  0  0  0  0  0  0  0  0  0  0
   19.7888   38.5023   -7.3824 C   0  0  0  0  0  0  0  0  0  0  0  0
   19.7900   39.7007   -6.4302 C   0  0  0  0  0  0  0  0  0  0  0  0
   21.1522   40.0180   -5.7794 C   0  0  1  0  0  0  0  0  0  0  0  0
   22.3405   40.0227   -6.7569 C   0  0  0  0  0  0  0  0  0  0  0  0
   21.0592   41.2464   -4.8312 C   0  0  0  0  0  0  0  0  0  0  0  0
   21.3168   42.6815   -5.3884 C   0  0  2  0  0  0  0  0  0  0  0  0
   20.8364   42.7929   -6.7638 N   0  0  0  0  0  0  0  0  0  0  0  0
   19.7013   43.3611   -7.1926 C   0  0  0  0  0  0  0  0  0  0  0  0
   18.9620   44.0649   -6.5056 O   0  0  0  0  0  0  0  0  0  0  0  0
   19.3609   43.0063   -8.6077 C   0  0  0  0  0  0  0  0  0  0  0  0
   18.1387   42.3636   -8.9107 C   0  0  0  0  0  0  0  0  0  0  0  0
   17.8504   41.9704  -10.2396 C   0  0  0  0  0  0  0  0  0  0  0  0
   18.7702   42.2642  -11.2691 C   0  0  0  0  0  0  0  0  0  0  0  0
   19.9855   42.9089  -10.9711 C   0  0  0  0  0  0  0  0  0  0  0  0
   20.2831   43.2721   -9.6451 C   0  0  0  0  0  0  0  0  0  0  0  0
   16.5784   41.2473  -10.5735 C   0  0  0  0  0  0  0  0  0  0  0  0
   15.7232   41.8396  -11.2369 O   0  0  0  0  0  0  0  0  0  0  0  0
   22.7967   43.1450   -5.3027 C   0  0  2  0  0  0  0  0  0  0  0  0
   23.2597   42.9504   -3.9863 O   0  0  0  0  0  0  0  0  0  0  0  0
   22.9679   44.6438   -5.6182 C   0  0  0  0  0  0  0  0  0  0  0  0
   24.3799   45.0398   -5.6403 N   0  0  0  0  0  0  0  0  0  0  0  0
   24.6180   46.3924   -6.1388 C   0  0  0  0  0  0  0  0  0  0  0  0
   24.0533   47.4840   -5.2474 C   0  0  0  0  0  0  0  0  0  0  0  0
   24.7278   47.8508   -4.0640 C   0  0  0  0  0  0  0  0  0  0  0  0
   24.2296   48.8951   -3.2527 C   0  0  0  0  0  0  0  0  0  0  0  0
   23.0477   49.5665   -3.6396 C   0  0  0  0  0  0  0  0  0  0  0  0
   22.3605   49.1867   -4.8081 C   0  0  0  0  0  0  0  0  0  0  0  0
   22.8634   48.1467   -5.6119 C   0  0  0  0  0  0  0  0  0  0  0  0
   24.9723   49.2891   -1.9816 C   0  0  0  0  0  0  0  0  0  0  0  0
   24.0879   49.1558   -0.7316 C   0  0  0  0  0  0  0  0  0  0  0  0
   25.5740   50.6979   -2.0899 C   0  0  0  0  0  0  0  0  0  0  0  0
   21.3505   39.1744   -5.1208 H   0  0  0  0  0  0  0  0  0  0  0  0
   20.7440   43.3640   -4.7569 H   0  0  0  0  0  0  0  0  0  0  0  0
   23.4138   42.5557   -5.9802 H   0  0  0  0  0  0  0  0  0  0  0  0
   13.2021   39.0083   -9.5340 H   0  0  0  0  0  0  0  0  0  0  0  0
   13.7332   40.6776   -9.6406 H   0  0  0  0  0  0  0  0  0  0  0  0
   14.3875   39.6142   -8.3948 H   0  0  0  0  0  0  0  0  0  0  0  0
   15.3388   38.1565  -10.2805 H   0  0  0  0  0  0  0  0  0  0  0  0
   14.8583   39.3614  -11.4293 H   0  0  0  0  0  0  0  0  0  0  0  0
   17.5640   38.1959  -10.1788 H   0  0  0  0  0  0  0  0  0  0  0  0
   18.5007   39.5795   -9.7638 H   0  0  0  0  0  0  0  0  0  0  0  0
   17.2646   39.7375   -7.5374 H   0  0  0  0  0  0  0  0  0  0  0  0
   16.3563   38.3257   -7.9802 H   0  0  0  0  0  0  0  0  0  0  0  0
   18.0593   37.5114   -6.5747 H   0  0  0  0  0  0  0  0  0  0  0  0
   18.4600   36.9913   -8.1822 H   0  0  0  0  0  0  0  0  0  0  0  0
   20.4620   37.7502   -6.9785 H   0  0  0  0  0  0  0  0  0  0  0  0
   20.2052   38.7885   -8.3483 H   0  0  0  0  0  0  0  0  0  0  0  0
   19.3866   40.5653   -6.9497 H   0  0  0  0  0  0  0  0  0  0  0  0
   19.0898   39.4853   -5.6233 H   0  0  0  0  0  0  0  0  0  0  0  0
   22.2292   40.7484   -7.5604 H   0  0  0  0  0  0  0  0  0  0  0  0
   22.4777   39.0475   -7.2251 H   0  0  0  0  0  0  0  0  0  0  0  0
   23.2602   40.2371   -6.2209 H   0  0  0  0  0  0  0  0  0  0  0  0
   20.0607   41.2472   -4.3912 H   0  0  0  0  0  0  0  0  0  0  0  0
   21.7027   41.0563   -3.9743 H   0  0  0  0  0  0  0  0  0  0  0  0
   21.3294   42.2337   -7.4433 H   0  0  0  0  0  0  0  0  0  0  0  0
   17.4358   42.1478   -8.1163 H   0  0  0  0  0  0  0  0  0  0  0  0
   18.5539   41.9729  -12.2869 H   0  0  0  0  0  0  0  0  0  0  0  0
   20.6971   43.1172  -11.7572 H   0  0  0  0  0  0  0  0  0  0  0  0
   21.2244   43.7569   -9.4275 H   0  0  0  0  0  0  0  0  0  0  0  0
   24.1034   43.3729   -3.8846 H   0  0  0  0  0  0  0  0  0  0  0  0
   22.5217   44.8531   -6.5905 H   0  0  0  0  0  0  0  0  0  0  0  0
   22.4146   45.2407   -4.8916 H   0  0  0  0  0  0  0  0  0  0  0  0
   24.7933   44.9489   -4.7111 H   0  0  0  0  0  0  0  0  0  0  0  0
   25.6926   46.5578   -6.2348 H   0  0  0  0  0  0  0  0  0  0  0  0
   24.2130   46.4985   -7.1459 H   0  0  0  0  0  0  0  0  0  0  0  0
   25.6358   47.3321   -3.7871 H   0  0  0  0  0  0  0  0  0  0  0  0
   22.6529   50.3665   -3.0312 H   0  0  0  0  0  0  0  0  0  0  0  0
   21.4456   49.6899   -5.0858 H   0  0  0  0  0  0  0  0  0  0  0  0
   22.3384   47.8597   -6.5126 H   0  0  0  0  0  0  0  0  0  0  0  0
   25.8041   48.5946   -1.8568 H   0  0  0  0  0  0  0  0  0  0  0  0
   23.6740   48.1502   -0.6441 H   0  0  0  0  0  0  0  0  0  0  0  0
   23.2594   49.8611   -0.7602 H   0  0  0  0  0  0  0  0  0  0  0  0
   24.6590   49.3603    0.1748 H   0  0  0  0  0  0  0  0  0  0  0  0
   26.2642   50.7648   -2.9318 H   0  0  0  0  0  0  0  0  0  0  0  0
   26.1318   50.9491   -1.1872 H   0  0  0  0  0  0  0  0  0  0  0  0
   24.8036   51.4572   -2.2246 H   0  0  0  0  0  0  0  0  0  0  0  0
  1  2  1  0  0  0  0
  1 41  1  0  0  0  0
  1 42  1  0  0  0  0
  1 43  1  0  0  0  0
  2  3  1  0  0  0  0
  2 44  1  0  0  0  0
  2 45  1  0  0  0  0
  3 22  1  0  0  0  0
  3  4  1  0  0  0  0
  4  5  1  0  0  0  0
  4 46  1  0  0  0  0
  4 47  1  0  0  0  0
  5  6  1  0  0  0  0
  5 48  1  0  0  0  0
  5 49  1  0  0  0  0
  6  7  1  0  0  0  0
  6 50  1  0  0  0  0
  6 51  1  0  0  0  0
  7  8  1  0  0  0  0
  7 52  1  0  0  0  0
  7 53  1  0  0  0  0
  8  9  1  0  0  0  0
  8 54  1  0  0  0  0
  8 55  1  0  0  0  0
  9 38  1  1  0  0  0
  9 10  1  0  0  0  0
  9 11  1  0  0  0  0
 10 56  1  0  0  0  0
 10 57  1  0  0  0  0
 10 58  1  0  0  0  0
 11 12  1  0  0  0  0
 11 59  1  0  0  0  0
 11 60  1  0  0  0  0
 12 39  1  1  0  0  0
 12 13  1  0  0  0  0
 12 24  1  0  0  0  0
 13 14  1  0  0  0  0
 13 61  1  0  0  0  0
 14 15  2  0  0  0  0
 14 16  1  0  0  0  0
 16 21  1  0  0  0  0
 16 17  2  0  0  0  0
 17 18  1  0  0  0  0
 17 62  1  0  0  0  0
 18 19  2  0  0  0  0
 18 22  1  0  0  0  0
 19 20  1  0  0  0  0
 19 63  1  0  0  0  0
 20 21  2  0  0  0  0
 20 64  1  0  0  0  0
 21 65  1  0  0  0  0
 22 23  2  0  0  0  0
 24 40  1  6  0  0  0
 24 25  1  0  0  0  0
 24 26  1  0  0  0  0
 25 66  1  0  0  0  0
 26 27  1  0  0  0  0
 26 67  1  0  0  0  0
 26 68  1  0  0  0  0
 27 28  1  0  0  0  0
 27 69  1  0  0  0  0
 28 29  1  0  0  0  0
 28 70  1  0  0  0  0
 28 71  1  0  0  0  0
 29 34  1  0  0  0  0
 29 30  2  0  0  0  0
 30 31  1  0  0  0  0
 30 72  1  0  0  0  0
 31 32  2  0  0  0  0
 31 35  1  0  0  0  0
 32 33  1  0  0  0  0
 32 73  1  0  0  0  0
 33 34  2  0  0  0  0
 33 74  1  0  0  0  0
 34 75  1  0  0  0  0
 35 36  1  0  0  0  0
 35 37  1  0  0  0  0
 35 76  1  0  0  0  0
 36 77  1  0  0  0  0
 36 78  1  0  0  0  0
 36 79  1  0  0  0  0
 37 80  1  0  0  0  0
 37 81  1  0  0  0  0
 37 82  1  0  0  0  0
M  END
>  <s_m_source_file>
BACE_6.smi

>  <i_m_source_file_index>
1

>  <i_lp_mmshare_version>
42013

>  <i_f3d_flags>
0

>  <s_epik_input>
W2NIXTFbY0hdW2NIXWMoW2NIXWMxMilDKD1PKU4oW0NIMl1bQ0gzXSlbQ0gyXVtDSDJdW0NIMl1bQ0gyXVtDSDJdW0NAQEhdKFtDSDNdKVtDSDJdW0NASF0oW05IXUMyPU8pW0NASF0oW09IXSlbQ0gyXVtOSF1bQ0gyXWMzW2NIXWMoW0NIXShbQ0gzXSlbQ0gzXSlbY0hdW2NIXVtjSF0z

>  <s_epik_cmdline>
J2VwaWtfcHl0aG9uJywgJy1waCcsICc3LjAnLCAnLXRuJywgJzgnLCAnLW1hJywgJzIwMCcsICctaW1hZScsICc8aW5maWxlLm1hZT4nLCAnLW9tYWUnLCAnPG91dGZpbGUubWFlPic=

>  <r_epik_Ionization_Penalty>
2.1294

>  <r_epik_Ionization_Penalty_Charging>
0.0000

>  <r_epik_Ionization_Penalty_Neutral>
2.1294

>  <r_epik_State_Penalty>
2.2676

>  <r_epik_Charging_Adjusted_Penalty>
2.26762

>  <i_epik_Tot_Q>
0

>  <i_epik_Tot_abs_Q>
0

>  <s_lp_Force_Field>
OPLS_2005

>  <r_lp_Energy>
54.4147

>  <b_lp_Chiralities_Consistent>
1

>  <s_lp_Variant>
BACE_6.smi:1-2

>  <chiral flag>
1

>  <version>
0

>  <s_i_glide_gridfile>
second_dock_grid_2

>  <i_i_glide_lignum>
9

>  <i_i_glide_rotatable_bonds>
8

>  <r_i_docking_score>
-0.575959

>  <r_i_glide_ligand_efficiency>
-0.0155665

>  <r_i_glide_ligand_efficiency_sa>
-0.0518709

>  <r_i_glide_ligand_efficiency_ln>
-0.124912

>  <r_glide_XP_GScore>
-2.84356

>  <r_i_glide_gscore>
-2.84356

>  <r_i_glide_evdw>
-38.7296

>  <r_i_glide_ecoul>
-10.0595

>  <r_i_glide_energy>
-48.7891

>  <r_i_glide_einternal>
8.75922

>  <r_i_glide_emodel>
-56.3214

>  <r_glide_XP_HBond>
-1.34322

>  <i_i_glide_confnum>
1

>  <i_i_glide_posenum>
1

>  <r_i_glide_eff_state_penalty>
2.2676

>  <i_glide_XP_PoseRank>
1

$$$$
