BACE_139.smi:1
 OpenBabel09291822493D
Structure written by MMmdl.
 77 80  0  0  1  0  0  0  0  0999 V2000
   28.2962   49.3453   -1.7367 C   0  0  0  0  0  0  0  0  0  0  0  0
   27.1110   49.7279   -0.8329 C   0  0  0  0  0  0  0  0  0  0  0  0
   27.0014   48.7669    0.3581 C   0  0  0  0  0  0  0  0  0  0  0  0
   25.7853   49.8387   -1.5783 C   0  0  0  0  0  0  0  0  0  0  0  0
   24.8630   50.8453   -1.2214 C   0  0  0  0  0  0  0  0  0  0  0  0
   23.6677   50.9545   -1.9515 C   0  0  0  0  0  0  0  0  0  0  0  0
   23.3559   50.1495   -2.9891 N   0  0  0  0  0  0  0  0  0  0  0  0
   24.2261   49.1690   -3.3194 C   0  0  0  0  0  0  0  0  0  0  0  0
   23.7965   48.2993   -4.4925 C   0  0  0  0  0  0  0  0  0  0  0  0
   24.8398   47.4273   -5.0446 N   0  0  0  0  0  0  0  0  0  0  0  0
   24.3707   46.6251   -6.1778 C   0  0  0  0  0  0  0  0  0  0  0  0
   23.7332   45.2659   -5.7765 C   0  0  1  0  0  0  0  0  0  0  0  0
   23.2600   45.2864   -4.4404 O   0  0  0  0  0  0  0  0  0  0  0  0
   22.5792   44.8839   -6.7447 C   0  0  2  0  0  0  0  0  0  0  0  0
   21.2761   45.7210   -6.5922 C   0  0  0  0  0  0  0  0  0  0  0  0
   20.0578   45.1949   -7.3417 C   0  0  0  0  0  0  0  0  0  0  0  0
   18.8946   44.8661   -6.6205 C   0  0  0  0  0  0  0  0  0  0  0  0
   17.7442   44.4069   -7.2845 C   0  0  0  0  0  0  0  0  0  0  0  0
   17.7483   44.2801   -8.6838 C   0  0  0  0  0  0  0  0  0  0  0  0
   18.9056   44.5945   -9.4187 C   0  0  0  0  0  0  0  0  0  0  0  0
   20.0661   45.0509   -8.7488 C   0  0  0  0  0  0  0  0  0  0  0  0
   18.8422   44.4978  -10.7825 O   0  0  0  0  0  0  0  0  0  0  0  0
   19.6827   43.5285  -11.3826 C   0  0  0  0  0  0  0  0  0  0  0  0
   19.1285   42.1039  -11.1805 C   0  0  0  0  0  0  0  0  0  0  0  0
   19.5656   41.0988  -12.2638 C   0  0  0  0  0  0  0  0  0  0  0  0
   21.0125   40.5764  -12.1899 C   0  0  0  0  0  0  0  0  0  0  0  0
   21.1389   39.5533  -11.2009 O   0  0  0  0  0  0  0  0  0  0  0  0
   21.5685   39.8476   -9.9232 C   0  0  0  0  0  0  0  0  0  0  0  0
   21.5582   38.7895   -8.9936 C   0  0  0  0  0  0  0  0  0  0  0  0
   21.9992   38.9900   -7.6709 C   0  0  0  0  0  0  0  0  0  0  0  0
   22.4636   40.2549   -7.2635 C   0  0  0  0  0  0  0  0  0  0  0  0
   22.4637   41.3352   -8.1739 C   0  0  0  0  0  0  0  0  0  0  0  0
   22.0283   41.1173   -9.4982 C   0  0  0  0  0  0  0  0  0  0  0  0
   22.9935   42.6960   -7.8136 C   0  0  0  0  0  0  0  0  0  0  0  0
   23.8871   43.1631   -8.5182 O   0  0  0  0  0  0  0  0  0  0  0  0
   22.3839   43.4138   -6.8299 N   0  0  0  0  0  0  0  0  0  0  0  0
   21.5276   42.8104   -5.7998 C   0  0  0  0  0  0  0  0  0  0  0  0
   25.4476   48.9669   -2.6361 C   0  0  0  0  0  0  0  0  0  0  0  0
   24.5135   44.5049   -5.8233 H   0  0  0  0  0  0  0  0  0  0  0  0
   22.9252   45.2004   -7.7348 H   0  0  0  0  0  0  0  0  0  0  0  0
   28.3701   50.0141   -2.5925 H   0  0  0  0  0  0  0  0  0  0  0  0
   28.2063   48.3285   -2.1181 H   0  0  0  0  0  0  0  0  0  0  0  0
   29.2382   49.3988   -1.1877 H   0  0  0  0  0  0  0  0  0  0  0  0
   27.3238   50.7194   -0.4394 H   0  0  0  0  0  0  0  0  0  0  0  0
   26.1895   49.0595    1.0280 H   0  0  0  0  0  0  0  0  0  0  0  0
   27.9217   48.7598    0.9416 H   0  0  0  0  0  0  0  0  0  0  0  0
   26.8156   47.7503    0.0197 H   0  0  0  0  0  0  0  0  0  0  0  0
   25.0700   51.5227   -0.4056 H   0  0  0  0  0  0  0  0  0  0  0  0
   22.9461   51.7192   -1.7081 H   0  0  0  0  0  0  0  0  0  0  0  0
   22.9320   47.7154   -4.1791 H   0  0  0  0  0  0  0  0  0  0  0  0
   23.4376   48.9685   -5.2750 H   0  0  0  0  0  0  0  0  0  0  0  0
   25.1568   46.7963   -4.3147 H   0  0  0  0  0  0  0  0  0  0  0  0
   23.6833   47.2201   -6.7797 H   0  0  0  0  0  0  0  0  0  0  0  0
   25.2126   46.4117   -6.8393 H   0  0  0  0  0  0  0  0  0  0  0  0
   23.9538   44.9515   -3.8749 H   0  0  0  0  0  0  0  0  0  0  0  0
   21.0123   45.8089   -5.5368 H   0  0  0  0  0  0  0  0  0  0  0  0
   21.4536   46.7440   -6.9253 H   0  0  0  0  0  0  0  0  0  0  0  0
   18.8827   44.9593   -5.5469 H   0  0  0  0  0  0  0  0  0  0  0  0
   16.8600   44.1428   -6.7247 H   0  0  0  0  0  0  0  0  0  0  0  0
   16.8600   43.9362   -9.1914 H   0  0  0  0  0  0  0  0  0  0  0  0
   20.9474   45.3095   -9.3163 H   0  0  0  0  0  0  0  0  0  0  0  0
   19.6634   43.7770  -12.4400 H   0  0  0  0  0  0  0  0  0  0  0  0
   20.7188   43.6172  -11.0532 H   0  0  0  0  0  0  0  0  0  0  0  0
   19.3637   41.7364  -10.1820 H   0  0  0  0  0  0  0  0  0  0  0  0
   18.0393   42.1652  -11.2199 H   0  0  0  0  0  0  0  0  0  0  0  0
   18.8962   40.2403  -12.2362 H   0  0  0  0  0  0  0  0  0  0  0  0
   19.4040   41.5585  -13.2389 H   0  0  0  0  0  0  0  0  0  0  0  0
   21.2355   40.0863  -13.1366 H   0  0  0  0  0  0  0  0  0  0  0  0
   21.7476   41.3767  -12.1245 H   0  0  0  0  0  0  0  0  0  0  0  0
   21.2169   37.8111   -9.2967 H   0  0  0  0  0  0  0  0  0  0  0  0
   22.0003   38.1641   -6.9708 H   0  0  0  0  0  0  0  0  0  0  0  0
   22.8367   40.3741   -6.2584 H   0  0  0  0  0  0  0  0  0  0  0  0
   22.0702   41.9545  -10.1730 H   0  0  0  0  0  0  0  0  0  0  0  0
   22.0989   42.1258   -5.1748 H   0  0  0  0  0  0  0  0  0  0  0  0
   20.6905   42.2693   -6.2426 H   0  0  0  0  0  0  0  0  0  0  0  0
   21.1085   43.5431   -5.1135 H   0  0  0  0  0  0  0  0  0  0  0  0
   26.1205   48.1763   -2.9296 H   0  0  0  0  0  0  0  0  0  0  0  0
  1  2  1  0  0  0  0
  1 41  1  0  0  0  0
  1 42  1  0  0  0  0
  1 43  1  0  0  0  0
  2  3  1  0  0  0  0
  2  4  1  0  0  0  0
  2 44  1  0  0  0  0
  3 45  1  0  0  0  0
  3 46  1  0  0  0  0
  3 47  1  0  0  0  0
  4 38  1  0  0  0  0
  4  5  2  0  0  0  0
  5  6  1  0  0  0  0
  5 48  1  0  0  0  0
  6  7  2  0  0  0  0
  6 49  1  0  0  0  0
  7  8  1  0  0  0  0
  8  9  1  0  0  0  0
  8 38  2  0  0  0  0
  9 10  1  0  0  0  0
  9 50  1  0  0  0  0
  9 51  1  0  0  0  0
 10 11  1  0  0  0  0
 10 52  1  0  0  0  0
 11 12  1  0  0  0  0
 11 53  1  0  0  0  0
 11 54  1  0  0  0  0
 12 39  1  6  0  0  0
 12 13  1  0  0  0  0
 12 14  1  0  0  0  0
 13 55  1  0  0  0  0
 14 40  1  6  0  0  0
 14 36  1  0  0  0  0
 14 15  1  0  0  0  0
 15 16  1  0  0  0  0
 15 56  1  0  0  0  0
 15 57  1  0  0  0  0
 16 21  1  0  0  0  0
 16 17  2  0  0  0  0
 17 18  1  0  0  0  0
 17 58  1  0  0  0  0
 18 19  2  0  0  0  0
 18 59  1  0  0  0  0
 19 20  1  0  0  0  0
 19 60  1  0  0  0  0
 20 21  2  0  0  0  0
 20 22  1  0  0  0  0
 21 61  1  0  0  0  0
 22 23  1  0  0  0  0
 23 24  1  0  0  0  0
 23 62  1  0  0  0  0
 23 63  1  0  0  0  0
 24 25  1  0  0  0  0
 24 64  1  0  0  0  0
 24 65  1  0  0  0  0
 25 26  1  0  0  0  0
 25 66  1  0  0  0  0
 25 67  1  0  0  0  0
 26 27  1  0  0  0  0
 26 68  1  0  0  0  0
 26 69  1  0  0  0  0
 27 28  1  0  0  0  0
 28 33  1  0  0  0  0
 28 29  2  0  0  0  0
 29 30  1  0  0  0  0
 29 70  1  0  0  0  0
 30 31  2  0  0  0  0
 30 71  1  0  0  0  0
 31 32  1  0  0  0  0
 31 72  1  0  0  0  0
 32 33  2  0  0  0  0
 32 34  1  0  0  0  0
 33 73  1  0  0  0  0
 34 35  2  0  0  0  0
 34 36  1  0  0  0  0
 36 37  1  0  0  0  0
 37 74  1  0  0  0  0
 37 75  1  0  0  0  0
 37 76  1  0  0  0  0
 38 77  1  0  0  0  0
M  END
>  <s_m_source_file>
BACE_139.smi

>  <i_m_source_file_index>
1

>  <i_lp_mmshare_version>
42013

>  <i_f3d_flags>
0

>  <s_epik_input>
W0NIM11bQ0hdKFtDSDNdKWMxW2NIXVtjSF1uYyhbY0hdMSlbQ0gyXVtOSF1bQ0gyXVtDQEBIXShbT0hdKVtDQEhdKFtDSDJdMilOKFtDSDNdKUMoPU8pYyhbY0hdMylbY0hdW2NIXVtjSF1jM09bQ0gyXVtDSDJdW0NIMl1bQ0gyXU9jKFtjSF00KVtjSF1bY0hdW2NIXWMyNA==

>  <s_epik_cmdline>
J2VwaWtfcHl0aG9uJywgJy1waCcsICc3LjAnLCAnLXRuJywgJzgnLCAnLW1hJywgJzIwMCcsICctaW1hZScsICc8aW5maWxlLm1hZT4nLCAnLW9tYWUnLCAnPG91dGZpbGUubWFlPic=

>  <r_lp_tautomer_probability>
1

>  <r_epik_Ionization_Penalty>
1.6445

>  <r_epik_Ionization_Penalty_Charging>
0.0000

>  <r_epik_Ionization_Penalty_Neutral>
1.6445

>  <r_epik_State_Penalty>
1.7443

>  <r_epik_Charging_Adjusted_Penalty>
1.74428

>  <i_epik_Tot_Q>
0

>  <i_epik_Tot_abs_Q>
0

>  <s_lp_Force_Field>
OPLS_2005

>  <r_lp_Energy>
62.5803

>  <b_lp_Chiralities_Consistent>
1

>  <s_lp_Variant>
BACE_139.smi:1-2

>  <chiral flag>
1

>  <version>
0

>  <s_i_glide_gridfile>
second_dock_grid_2

>  <i_i_glide_lignum>
286

>  <i_i_glide_rotatable_bonds>
7

>  <r_i_docking_score>
-2.70938

>  <r_i_glide_ligand_efficiency>
-0.0712995

>  <r_i_glide_ligand_efficiency_sa>
-0.239707

>  <r_i_glide_ligand_efficiency_ln>
-0.584222

>  <r_glide_XP_GScore>
-4.45368

>  <r_i_glide_gscore>
-4.45368

>  <r_i_glide_evdw>
-39.8806

>  <r_i_glide_ecoul>
-5.57951

>  <r_i_glide_energy>
-45.4601

>  <r_i_glide_einternal>
6.83426

>  <r_i_glide_emodel>
-57.0006

>  <r_glide_XP_HBond>
-1.33

>  <i_i_glide_confnum>
1

>  <i_i_glide_posenum>
2

>  <r_i_glide_eff_state_penalty>
1.7443

>  <i_glide_XP_PoseRank>
1

$$$$
