BACE_124.smi:1
 OpenBabel09291822493D
Structure written by MMmdl.
 91 94  0  0  1  0  0  0  0  0999 V2000
   21.0923   41.8195   -4.0195 C   0  0  0  0  0  0  0  0  0  0  0  0
   20.4599   42.9514   -4.5912 O   0  0  0  0  0  0  0  0  0  0  0  0
   20.1924   42.7856   -5.9748 C   0  0  0  0  0  0  0  0  0  0  0  0
   19.3955   43.9496   -6.5281 C   0  0  0  0  0  0  0  0  0  0  0  0
   19.8630   45.2649   -6.3417 C   0  0  0  0  0  0  0  0  0  0  0  0
   19.1433   46.3588   -6.8692 C   0  0  0  0  0  0  0  0  0  0  0  0
   17.9399   46.1268   -7.5607 C   0  0  0  0  0  0  0  0  0  0  0  0
   17.4693   44.8130   -7.7638 C   0  0  0  0  0  0  0  0  0  0  0  0
   18.1999   43.7232   -7.2412 C   0  0  0  0  0  0  0  0  0  0  0  0
   16.2090   44.6038   -8.5458 C   0  0  0  0  0  0  0  0  0  0  0  0
   15.2633   45.3857   -8.4378 O   0  0  0  0  0  0  0  0  0  0  0  0
   16.2480   43.6002   -9.4345 N   0  0  0  0  0  0  0  0  0  0  0  0
   15.2836   43.3521  -10.5066 C   0  0  1  0  0  0  0  0  0  0  0  0
   15.8679   43.8223  -11.8608 C   0  0  0  0  0  0  0  0  0  0  0  0
   16.5927   45.1616  -11.8280 C   0  0  0  0  0  0  0  0  0  0  0  0
   17.9855   45.2173  -11.6006 C   0  0  0  0  0  0  0  0  0  0  0  0
   18.6657   46.4504  -11.5220 C   0  0  0  0  0  0  0  0  0  0  0  0
   17.9228   47.6439  -11.7010 C   0  0  0  0  0  0  0  0  0  0  0  0
   16.5383   47.5941  -11.9472 C   0  0  0  0  0  0  0  0  0  0  0  0
   15.8716   46.3574  -12.0077 C   0  0  0  0  0  0  0  0  0  0  0  0
   20.0223   46.4012  -11.2706 O   0  0  0  0  0  0  0  0  0  0  0  0
   20.7556   47.6149  -11.1132 C   0  0  0  0  0  0  0  0  0  0  0  0
   20.5734   48.2130   -9.7052 C   0  0  0  0  0  0  0  0  0  0  0  0
   21.3111   47.4101   -8.6188 C   0  0  0  0  0  0  0  0  0  0  0  0
   21.0116   47.8805   -7.1786 C   0  0  0  0  0  0  0  0  0  0  0  0
   19.6229   47.6711   -6.7778 N   0  0  0  0  0  0  0  0  0  0  0  0
   14.8364   41.8610  -10.5352 C   0  0  2  0  0  0  0  0  0  0  0  0
   13.6635   41.7542  -11.3348 O   0  0  0  0  0  0  0  0  0  0  0  0
   14.4576   41.3081   -9.1441 C   0  0  0  0  0  0  0  0  0  0  0  0
   15.5740   40.9820   -8.2399 N   0  0  0  0  0  0  0  0  0  0  0  0
   16.4041   39.7741   -8.4438 C   0  0  0  0  0  0  0  0  0  0  0  0
   16.4490   39.1072   -7.0551 C   0  0  0  0  0  0  0  0  0  0  0  0
   15.7732   38.7430   -9.4105 C   0  0  0  0  0  0  0  0  0  0  0  0
   17.8175   40.1481   -8.9478 C   0  0  0  0  0  0  0  0  0  0  0  0
   18.9924   39.5873   -8.3912 C   0  0  0  0  0  0  0  0  0  0  0  0
   20.2622   39.9331   -8.9111 C   0  0  0  0  0  0  0  0  0  0  0  0
   20.2879   40.8168  -10.0136 C   0  0  0  0  0  0  0  0  0  0  0  0
   19.0773   41.3301  -10.5047 C   0  0  0  0  0  0  0  0  0  0  0  0
   17.8760   41.0184   -9.9842 N   0  0  0  0  0  0  0  0  0  0  0  0
   21.5625   39.3305   -8.3478 C   0  0  0  0  0  0  0  0  0  0  0  0
   21.9512   38.1237   -9.2175 C   0  0  0  0  0  0  0  0  0  0  0  0
   22.7222   40.3527   -8.3736 C   0  0  0  0  0  0  0  0  0  0  0  0
   21.4040   38.8644   -6.8825 C   0  0  0  0  0  0  0  0  0  0  0  0
   14.3968   43.9551  -10.3026 H   0  0  0  0  0  0  0  0  0  0  0  0
   15.5900   41.2360  -11.0063 H   0  0  0  0  0  0  0  0  0  0  0  0
   21.2954   42.0081   -2.9661 H   0  0  0  0  0  0  0  0  0  0  0  0
   22.0407   41.6034   -4.5136 H   0  0  0  0  0  0  0  0  0  0  0  0
   20.4551   40.9365   -4.0850 H   0  0  0  0  0  0  0  0  0  0  0  0
   19.6606   41.8511   -6.1588 H   0  0  0  0  0  0  0  0  0  0  0  0
   21.1338   42.7239   -6.5212 H   0  0  0  0  0  0  0  0  0  0  0  0
   20.7846   45.4228   -5.8011 H   0  0  0  0  0  0  0  0  0  0  0  0
   17.3907   46.9581   -7.9781 H   0  0  0  0  0  0  0  0  0  0  0  0
   17.8431   42.7106   -7.3761 H   0  0  0  0  0  0  0  0  0  0  0  0
   17.0292   42.9564   -9.3916 H   0  0  0  0  0  0  0  0  0  0  0  0
   16.5713   43.0761  -12.2311 H   0  0  0  0  0  0  0  0  0  0  0  0
   15.0566   43.8924  -12.5840 H   0  0  0  0  0  0  0  0  0  0  0  0
   18.5419   44.3041  -11.4557 H   0  0  0  0  0  0  0  0  0  0  0  0
   18.3884   48.6151  -11.6509 H   0  0  0  0  0  0  0  0  0  0  0  0
   15.9897   48.5131  -12.0827 H   0  0  0  0  0  0  0  0  0  0  0  0
   14.8068   46.3285  -12.1817 H   0  0  0  0  0  0  0  0  0  0  0  0
   21.8099   47.3878  -11.2717 H   0  0  0  0  0  0  0  0  0  0  0  0
   20.5067   48.3347  -11.8926 H   0  0  0  0  0  0  0  0  0  0  0  0
   20.9501   49.2364   -9.6993 H   0  0  0  0  0  0  0  0  0  0  0  0
   19.5118   48.2807   -9.4697 H   0  0  0  0  0  0  0  0  0  0  0  0
   21.0808   46.3498   -8.7249 H   0  0  0  0  0  0  0  0  0  0  0  0
   22.3845   47.4910   -8.7937 H   0  0  0  0  0  0  0  0  0  0  0  0
   21.6714   47.3725   -6.4746 H   0  0  0  0  0  0  0  0  0  0  0  0
   21.2374   48.9435   -7.0862 H   0  0  0  0  0  0  0  0  0  0  0  0
   18.9947   48.3689   -7.1458 H   0  0  0  0  0  0  0  0  0  0  0  0
   13.1472   41.0254  -11.0072 H   0  0  0  0  0  0  0  0  0  0  0  0
   13.8526   42.0781   -8.6669 H   0  0  0  0  0  0  0  0  0  0  0  0
   13.7947   40.4467   -9.2387 H   0  0  0  0  0  0  0  0  0  0  0  0
   15.2340   40.9779   -7.2801 H   0  0  0  0  0  0  0  0  0  0  0  0
   15.4458   38.9021   -6.6765 H   0  0  0  0  0  0  0  0  0  0  0  0
   16.9438   39.7438   -6.3253 H   0  0  0  0  0  0  0  0  0  0  0  0
   16.9675   38.1500   -7.0728 H   0  0  0  0  0  0  0  0  0  0  0  0
   14.7818   38.4309   -9.0792 H   0  0  0  0  0  0  0  0  0  0  0  0
   16.3860   37.8411   -9.4580 H   0  0  0  0  0  0  0  0  0  0  0  0
   15.6902   39.1119  -10.4309 H   0  0  0  0  0  0  0  0  0  0  0  0
   18.9212   38.8875   -7.5763 H   0  0  0  0  0  0  0  0  0  0  0  0
   21.2108   41.1015  -10.4948 H   0  0  0  0  0  0  0  0  0  0  0  0
   19.0734   42.0053  -11.3468 H   0  0  0  0  0  0  0  0  0  0  0  0
   21.1718   37.3582   -9.2370 H   0  0  0  0  0  0  0  0  0  0  0  0
   22.8599   37.6564   -8.8423 H   0  0  0  0  0  0  0  0  0  0  0  0
   22.1379   38.4239  -10.2484 H   0  0  0  0  0  0  0  0  0  0  0  0
   22.4626   41.2631   -7.8333 H   0  0  0  0  0  0  0  0  0  0  0  0
   23.0103   40.6331   -9.3862 H   0  0  0  0  0  0  0  0  0  0  0  0
   23.6206   39.9428   -7.9097 H   0  0  0  0  0  0  0  0  0  0  0  0
   21.0224   39.6669   -6.2498 H   0  0  0  0  0  0  0  0  0  0  0  0
   22.3577   38.5488   -6.4600 H   0  0  0  0  0  0  0  0  0  0  0  0
   20.7288   38.0138   -6.7921 H   0  0  0  0  0  0  0  0  0  0  0  0
  1  2  1  0  0  0  0
  1 46  1  0  0  0  0
  1 47  1  0  0  0  0
  1 48  1  0  0  0  0
  2  3  1  0  0  0  0
  3  4  1  0  0  0  0
  3 49  1  0  0  0  0
  3 50  1  0  0  0  0
  4  9  1  0  0  0  0
  4  5  2  0  0  0  0
  5  6  1  0  0  0  0
  5 51  1  0  0  0  0
  6 26  1  0  0  0  0
  6  7  2  0  0  0  0
  7  8  1  0  0  0  0
  7 52  1  0  0  0  0
  8  9  2  0  0  0  0
  8 10  1  0  0  0  0
  9 53  1  0  0  0  0
 10 11  2  0  0  0  0
 10 12  1  0  0  0  0
 12 13  1  0  0  0  0
 12 54  1  0  0  0  0
 13 44  1  1  0  0  0
 13 14  1  0  0  0  0
 13 27  1  0  0  0  0
 14 15  1  0  0  0  0
 14 55  1  0  0  0  0
 14 56  1  0  0  0  0
 15 20  1  0  0  0  0
 15 16  2  0  0  0  0
 16 17  1  0  0  0  0
 16 57  1  0  0  0  0
 17 18  2  0  0  0  0
 17 21  1  0  0  0  0
 18 19  1  0  0  0  0
 18 58  1  0  0  0  0
 19 20  2  0  0  0  0
 19 59  1  0  0  0  0
 20 60  1  0  0  0  0
 21 22  1  0  0  0  0
 22 23  1  0  0  0  0
 22 61  1  0  0  0  0
 22 62  1  0  0  0  0
 23 24  1  0  0  0  0
 23 63  1  0  0  0  0
 23 64  1  0  0  0  0
 24 25  1  0  0  0  0
 24 65  1  0  0  0  0
 24 66  1  0  0  0  0
 25 26  1  0  0  0  0
 25 67  1  0  0  0  0
 25 68  1  0  0  0  0
 26 69  1  0  0  0  0
 27 45  1  6  0  0  0
 27 28  1  0  0  0  0
 27 29  1  0  0  0  0
 28 70  1  0  0  0  0
 29 30  1  0  0  0  0
 29 71  1  0  0  0  0
 29 72  1  0  0  0  0
 30 31  1  0  0  0  0
 30 73  1  0  0  0  0
 31 32  1  0  0  0  0
 31 33  1  0  0  0  0
 31 34  1  0  0  0  0
 32 74  1  0  0  0  0
 32 75  1  0  0  0  0
 32 76  1  0  0  0  0
 33 77  1  0  0  0  0
 33 78  1  0  0  0  0
 33 79  1  0  0  0  0
 34 39  1  0  0  0  0
 34 35  2  0  0  0  0
 35 36  1  0  0  0  0
 35 80  1  0  0  0  0
 36 37  2  0  0  0  0
 36 40  1  0  0  0  0
 37 38  1  0  0  0  0
 37 81  1  0  0  0  0
 38 39  2  0  0  0  0
 38 82  1  0  0  0  0
 40 41  1  0  0  0  0
 40 42  1  0  0  0  0
 40 43  1  0  0  0  0
 41 83  1  0  0  0  0
 41 84  1  0  0  0  0
 41 85  1  0  0  0  0
 42 86  1  0  0  0  0
 42 87  1  0  0  0  0
 42 88  1  0  0  0  0
 43 89  1  0  0  0  0
 43 90  1  0  0  0  0
 43 91  1  0  0  0  0
M  END
>  <s_m_source_file>
BACE_124.smi

>  <i_m_source_file_index>
1

>  <i_lp_mmshare_version>
42013

>  <i_f3d_flags>
0

>  <s_epik_input>
bjFbY0hdW2NIXWMoQyhbQ0gzXSkoW0NIM10pW0NIM10pW2NIXWMxQyhbQ0gzXSkoW0NIM10pW05IXVtDSDJdW0NAQEhdKFtPSF0pW0NAQEhdKFtOSF1DKD1PKWMoW2NIXTIpW2NIXWMoW2NIXWMyMylbQ0gyXU9bQ0gzXSlbQ0gyXWM0W2NIXWMoW2NIXVtjSF1bY0hdNClPW0NIMl1bQ0gyXVtDSDJdW0NIMl1bTkhdMw==

>  <s_epik_cmdline>
J2VwaWtfcHl0aG9uJywgJy1waCcsICc3LjAnLCAnLXRuJywgJzgnLCAnLW1hJywgJzIwMCcsICctaW1hZScsICc8aW5maWxlLm1hZT4nLCAnLW9tYWUnLCAnPG91dGZpbGUubWFlPic=

>  <r_lp_tautomer_probability>
1

>  <r_epik_Ionization_Penalty>
1.6575

>  <r_epik_Ionization_Penalty_Charging>
0.0000

>  <r_epik_Ionization_Penalty_Neutral>
1.6575

>  <r_epik_State_Penalty>
1.7498

>  <r_epik_Charging_Adjusted_Penalty>
1.7498

>  <i_epik_Tot_Q>
0

>  <i_epik_Tot_abs_Q>
0

>  <s_lp_Force_Field>
OPLS_2005

>  <r_lp_Energy>
41.0353

>  <b_lp_Chiralities_Consistent>
1

>  <s_lp_Variant>
BACE_124.smi:1-2

>  <chiral flag>
1

>  <version>
0

>  <s_i_glide_gridfile>
second_dock_grid_2

>  <i_i_glide_lignum>
255

>  <i_i_glide_rotatable_bonds>
9

>  <r_i_docking_score>
-1.84995

>  <r_i_glide_ligand_efficiency>
-0.0430221

>  <r_i_glide_ligand_efficiency_sa>
-0.150724

>  <r_i_glide_ligand_efficiency_ln>
-0.388547

>  <r_glide_XP_GScore>
-3.59975

>  <r_i_glide_gscore>
-3.59975

>  <r_i_glide_evdw>
-41.6464

>  <r_i_glide_ecoul>
-8.7607

>  <r_i_glide_energy>
-50.4071

>  <r_i_glide_einternal>
7.33824

>  <r_i_glide_emodel>
-69.2053

>  <r_glide_XP_HBond>
-0.668074

>  <i_i_glide_confnum>
1

>  <i_i_glide_posenum>
21

>  <r_i_glide_eff_state_penalty>
1.7498

>  <i_glide_XP_PoseRank>
1

$$$$
