BACE_26.smi:1
 OpenBabel09291822493D
Structure written by MMmdl.
 93 94  0  0  1  0  0  0  0  0999 V2000
   31.3239   43.7099  -14.4379 C   0  0  0  0  0  0  0  0  0  0  0  0
   30.0954   42.9851  -15.0106 C   0  0  0  0  0  0  0  0  0  0  0  0
   30.3268   42.5862  -16.4749 C   0  0  0  0  0  0  0  0  0  0  0  0
   29.7012   41.7509  -14.1773 C   0  0  0  0  0  0  0  0  0  0  0  0
   29.3082   42.0748  -12.7475 C   0  0  0  0  0  0  0  0  0  0  0  0
   28.0216   42.5567  -12.4424 C   0  0  0  0  0  0  0  0  0  0  0  0
   27.6780   42.8609  -11.1075 C   0  0  0  0  0  0  0  0  0  0  0  0
   28.6822   42.6348  -10.1351 C   0  0  0  0  0  0  0  0  0  0  0  0
   29.9146   42.1545  -10.4092 N   0  0  0  0  0  0  0  0  0  0  0  0
   30.2165   41.8841  -11.6922 C   0  0  0  0  0  0  0  0  0  0  0  0
   26.2766   43.3894  -10.7466 C   0  0  0  0  0  0  0  0  0  0  0  0
   25.7324   44.3356  -11.8442 C   0  0  0  0  0  0  0  0  0  0  0  0
   26.3041   44.1858   -9.4180 C   0  0  0  0  0  0  0  0  0  0  0  0
   25.3980   42.1953  -10.6245 N   0  3  0  0  0  0  0  0  0  0  0  0
   23.9725   42.4007  -10.2654 C   0  0  0  0  0  0  0  0  0  0  0  0
   23.3452   41.0578   -9.8616 C   0  0  1  0  0  0  0  0  0  0  0  0
   24.1823   40.5526   -8.8411 O   0  0  0  0  0  0  0  0  0  0  0  0
   21.9056   41.1233   -9.2890 C   0  0  2  0  0  0  0  0  0  0  0  0
   21.3604   39.7090   -8.9865 C   0  0  0  0  0  0  0  0  0  0  0  0
   19.8923   39.6372   -8.5065 C   0  0  2  0  0  0  0  0  0  0  0  0
   19.6903   40.3767   -7.1698 C   0  0  0  0  0  0  0  0  0  0  0  0
   19.4481   38.1631   -8.4065 C   0  0  0  0  0  0  0  0  0  0  0  0
   17.9268   37.9394   -8.3232 C   0  0  0  0  0  0  0  0  0  0  0  0
   17.1712   38.2557   -9.6334 C   0  0  0  0  0  0  0  0  0  0  0  0
   15.6437   38.3131   -9.4656 C   0  0  0  0  0  0  0  0  0  0  0  0
   15.1316   39.3636   -8.4569 C   0  0  0  0  0  0  0  0  0  0  0  0
   15.6518   40.7981   -8.6736 C   0  0  0  0  0  0  0  0  0  0  0  0
   15.1526   41.4475   -9.9775 C   0  0  0  0  0  0  0  0  0  0  0  0
   15.6621   42.8882  -10.1682 C   0  0  0  0  0  0  0  0  0  0  0  0
   17.0355   42.9703  -10.8681 C   0  0  0  0  0  0  0  0  0  0  0  0
   17.0718   42.6266  -12.0486 O   0  0  0  0  0  0  0  0  0  0  0  0
   18.1343   43.4372  -10.2168 N   0  0  0  0  0  0  0  0  0  0  0  0
   18.0472   43.9095   -8.8254 C   0  0  0  0  0  0  0  0  0  0  0  0
   19.4365   43.5803  -10.9223 C   0  0  1  0  0  0  0  0  0  0  0  0
   19.5761   44.9882  -11.5323 C   0  0  0  0  0  0  0  0  0  0  0  0
   20.6682   43.1238  -10.1229 C   0  0  0  0  0  0  0  0  0  0  0  0
   21.3338   43.9380   -9.4835 O   0  0  0  0  0  0  0  0  0  0  0  0
   20.9660   41.8196  -10.1676 N   0  0  0  0  0  0  0  0  0  0  0  0
   23.3773   40.3757  -10.7125 H   0  0  0  0  0  0  0  0  0  0  0  0
   21.9474   41.6742   -8.3471 H   0  0  0  0  0  0  0  0  0  0  0  0
   19.2692   40.1271   -9.2493 H   0  0  0  0  0  0  0  0  0  0  0  0
   19.4463   42.9088  -11.7841 H   0  0  0  0  0  0  0  0  0  0  0  0
   31.1352   44.0780  -13.4290 H   0  0  0  0  0  0  0  0  0  0  0  0
   31.5943   44.5707  -15.0495 H   0  0  0  0  0  0  0  0  0  0  0  0
   32.1867   43.0457  -14.3958 H   0  0  0  0  0  0  0  0  0  0  0  0
   29.2616   43.6880  -14.9925 H   0  0  0  0  0  0  0  0  0  0  0  0
   29.4467   42.0993  -16.8981 H   0  0  0  0  0  0  0  0  0  0  0  0
   31.1591   41.8874  -16.5669 H   0  0  0  0  0  0  0  0  0  0  0  0
   30.5555   43.4550  -17.0921 H   0  0  0  0  0  0  0  0  0  0  0  0
   30.5168   41.0266  -14.1713 H   0  0  0  0  0  0  0  0  0  0  0  0
   28.8618   41.2472  -14.6562 H   0  0  0  0  0  0  0  0  0  0  0  0
   27.3120   42.6775  -13.2456 H   0  0  0  0  0  0  0  0  0  0  0  0
   28.5059   42.8323   -9.0916 H   0  0  0  0  0  0  0  0  0  0  0  0
   31.2102   41.5043  -11.8782 H   0  0  0  0  0  0  0  0  0  0  0  0
   24.7890   44.7927  -11.5449 H   0  0  0  0  0  0  0  0  0  0  0  0
   25.5394   43.8249  -12.7862 H   0  0  0  0  0  0  0  0  0  0  0  0
   26.4300   45.1516  -12.0416 H   0  0  0  0  0  0  0  0  0  0  0  0
   25.3624   44.6992   -9.2253 H   0  0  0  0  0  0  0  0  0  0  0  0
   27.0708   44.9619   -9.4398 H   0  0  0  0  0  0  0  0  0  0  0  0
   26.4962   43.5487   -8.5549 H   0  0  0  0  0  0  0  0  0  0  0  0
   25.7710   41.5983   -9.8962 H   0  0  0  0  0  0  0  0  0  0  0  0
   23.4439   42.8361  -11.1144 H   0  0  0  0  0  0  0  0  0  0  0  0
   23.8781   43.0929   -9.4306 H   0  0  0  0  0  0  0  0  0  0  0  0
   24.2900   39.6154   -8.9876 H   0  0  0  0  0  0  0  0  0  0  0  0
   21.4614   39.1079   -9.8908 H   0  0  0  0  0  0  0  0  0  0  0  0
   21.9911   39.2224   -8.2430 H   0  0  0  0  0  0  0  0  0  0  0  0
   18.6541   40.3339   -6.8404 H   0  0  0  0  0  0  0  0  0  0  0  0
   19.9387   41.4356   -7.2443 H   0  0  0  0  0  0  0  0  0  0  0  0
   20.3005   39.9446   -6.3781 H   0  0  0  0  0  0  0  0  0  0  0  0
   19.8334   37.5873   -9.2483 H   0  0  0  0  0  0  0  0  0  0  0  0
   19.9177   37.7495   -7.5150 H   0  0  0  0  0  0  0  0  0  0  0  0
   17.5312   38.5221   -7.4932 H   0  0  0  0  0  0  0  0  0  0  0  0
   17.7321   36.9021   -8.0510 H   0  0  0  0  0  0  0  0  0  0  0  0
   17.5021   39.1995  -10.0566 H   0  0  0  0  0  0  0  0  0  0  0  0
   17.4222   37.5089  -10.3891 H   0  0  0  0  0  0  0  0  0  0  0  0
   15.2755   37.3336   -9.1630 H   0  0  0  0  0  0  0  0  0  0  0  0
   15.1943   38.5097  -10.4382 H   0  0  0  0  0  0  0  0  0  0  0  0
   14.0426   39.3700   -8.4826 H   0  0  0  0  0  0  0  0  0  0  0  0
   15.3788   39.0455   -7.4418 H   0  0  0  0  0  0  0  0  0  0  0  0
   16.7390   40.8188   -8.6334 H   0  0  0  0  0  0  0  0  0  0  0  0
   15.3171   41.4064   -7.8302 H   0  0  0  0  0  0  0  0  0  0  0  0
   15.4330   40.8294  -10.8316 H   0  0  0  0  0  0  0  0  0  0  0  0
   14.0619   41.4526   -9.9661 H   0  0  0  0  0  0  0  0  0  0  0  0
   15.5989   43.4235   -9.2259 H   0  0  0  0  0  0  0  0  0  0  0  0
   14.9622   43.4083  -10.8201 H   0  0  0  0  0  0  0  0  0  0  0  0
   18.9741   44.3351   -8.4431 H   0  0  0  0  0  0  0  0  0  0  0  0
   17.7622   43.0972   -8.1543 H   0  0  0  0  0  0  0  0  0  0  0  0
   17.3104   44.7108   -8.7364 H   0  0  0  0  0  0  0  0  0  0  0  0
   20.5366   45.0971  -12.0393 H   0  0  0  0  0  0  0  0  0  0  0  0
   19.5319   45.7580  -10.7622 H   0  0  0  0  0  0  0  0  0  0  0  0
   18.7903   45.1875  -12.2625 H   0  0  0  0  0  0  0  0  0  0  0  0
   20.3676   41.2312  -10.7275 H   0  0  0  0  0  0  0  0  0  0  0  0
   25.4253   41.6730  -11.4893 H   0  0  0  0  0  0  0  0  0  0  0  0
  1  2  1  0  0  0  0
  1 43  1  0  0  0  0
  1 44  1  0  0  0  0
  1 45  1  0  0  0  0
  2  3  1  0  0  0  0
  2  4  1  0  0  0  0
  2 46  1  0  0  0  0
  3 47  1  0  0  0  0
  3 48  1  0  0  0  0
  3 49  1  0  0  0  0
  4  5  1  0  0  0  0
  4 50  1  0  0  0  0
  4 51  1  0  0  0  0
  5 10  1  0  0  0  0
  5  6  2  0  0  0  0
  6  7  1  0  0  0  0
  6 52  1  0  0  0  0
  7  8  2  0  0  0  0
  7 11  1  0  0  0  0
  8  9  1  0  0  0  0
  8 53  1  0  0  0  0
  9 10  2  0  0  0  0
 10 54  1  0  0  0  0
 11 12  1  0  0  0  0
 11 13  1  0  0  0  0
 11 14  1  0  0  0  0
 12 55  1  0  0  0  0
 12 56  1  0  0  0  0
 12 57  1  0  0  0  0
 13 58  1  0  0  0  0
 13 59  1  0  0  0  0
 13 60  1  0  0  0  0
 14 15  1  0  0  0  0
 14 61  1  0  0  0  0
 14 93  1  0  0  0  0
 15 16  1  0  0  0  0
 15 62  1  0  0  0  0
 15 63  1  0  0  0  0
 16 39  1  6  0  0  0
 16 17  1  0  0  0  0
 16 18  1  0  0  0  0
 17 64  1  0  0  0  0
 18 40  1  1  0  0  0
 18 38  1  0  0  0  0
 18 19  1  0  0  0  0
 19 20  1  0  0  0  0
 19 65  1  0  0  0  0
 19 66  1  0  0  0  0
 20 41  1  6  0  0  0
 20 21  1  0  0  0  0
 20 22  1  0  0  0  0
 21 67  1  0  0  0  0
 21 68  1  0  0  0  0
 21 69  1  0  0  0  0
 22 23  1  0  0  0  0
 22 70  1  0  0  0  0
 22 71  1  0  0  0  0
 23 24  1  0  0  0  0
 23 72  1  0  0  0  0
 23 73  1  0  0  0  0
 24 25  1  0  0  0  0
 24 74  1  0  0  0  0
 24 75  1  0  0  0  0
 25 26  1  0  0  0  0
 25 76  1  0  0  0  0
 25 77  1  0  0  0  0
 26 27  1  0  0  0  0
 26 78  1  0  0  0  0
 26 79  1  0  0  0  0
 27 28  1  0  0  0  0
 27 80  1  0  0  0  0
 27 81  1  0  0  0  0
 28 29  1  0  0  0  0
 28 82  1  0  0  0  0
 28 83  1  0  0  0  0
 29 30  1  0  0  0  0
 29 84  1  0  0  0  0
 29 85  1  0  0  0  0
 30 31  2  0  0  0  0
 30 32  1  0  0  0  0
 32 33  1  0  0  0  0
 32 34  1  0  0  0  0
 33 86  1  0  0  0  0
 33 87  1  0  0  0  0
 33 88  1  0  0  0  0
 34 42  1  6  0  0  0
 34 35  1  0  0  0  0
 34 36  1  0  0  0  0
 35 89  1  0  0  0  0
 35 90  1  0  0  0  0
 35 91  1  0  0  0  0
 36 37  2  0  0  0  0
 36 38  1  0  0  0  0
 38 92  1  0  0  0  0
M  CHG  1  14   1
M  END
>  <s_m_source_file>
BACE_26.smi

>  <i_m_source_file_index>
1

>  <i_lp_mmshare_version>
42013

>  <i_f3d_flags>
0

>  <s_epik_input>
W0NIM11bQ0hdKFtDSDNdKVtDSDJdYzFbY0hdYyhbY0hdbltjSF0xKUMoW0NIM10pKFtDSDNdKVtOSF1bQ0gyXVtDQEBIXShbT0hdKVtDQEBIXTJbQ0gyXVtDQEhdKFtDSDNdKVtDSDJdW0NIMl1bQ0gyXVtDSDJdW0NIMl1bQ0gyXVtDSDJdW0NIMl1DKD1PKU4oW0NIM10pW0NAQEhdKFtDSDNdKUMoPU8pW05IXTI=

>  <s_epik_cmdline>
J2VwaWtfcHl0aG9uJywgJy1waCcsICc3LjAnLCAnLXRuJywgJzgnLCAnLW1hJywgJzIwMCcsICctaW1hZScsICc8aW5maWxlLm1hZT4nLCAnLW9tYWUnLCAnPG91dGZpbGUubWFlPic=

>  <r_epik_Ionization_Penalty>
0.0498

>  <r_epik_Ionization_Penalty_Charging>
0.0401

>  <r_epik_Ionization_Penalty_Neutral>
0.0097

>  <r_epik_State_Penalty>
0.0353

>  <r_epik_Charging_Adjusted_Penalty>
0.0753454

>  <i_epik_Tot_Q>
1

>  <i_epik_Tot_abs_Q>
1

>  <s_lp_Force_Field>
OPLS_2005

>  <r_lp_Energy>
40.0719

>  <b_lp_Chiralities_Consistent>
1

>  <s_lp_Variant>
BACE_26.smi:1-1

>  <chiral flag>
1

>  <version>
0

>  <s_i_glide_gridfile>
second_dock_grid_2

>  <i_i_glide_lignum>
43

>  <i_i_glide_rotatable_bonds>
8

>  <r_i_docking_score>
-4.18815

>  <r_i_glide_ligand_efficiency>
-0.110214

>  <r_i_glide_ligand_efficiency_sa>
-0.370538

>  <r_i_glide_ligand_efficiency_ln>
-0.903088

>  <r_glide_XP_GScore>
-4.22345

>  <r_i_glide_gscore>
-4.22345

>  <r_i_glide_evdw>
-35.9

>  <r_i_glide_ecoul>
-13.0333

>  <r_i_glide_energy>
-48.9333

>  <r_i_glide_einternal>
5.3167

>  <r_i_glide_emodel>
-63.1304

>  <r_glide_XP_HBond>
-0.630519

>  <i_i_glide_confnum>
1

>  <i_i_glide_posenum>
5

>  <r_i_glide_eff_state_penalty>
0.0353

>  <i_glide_XP_PoseRank>
1

$$$$
