BACE_144.smi:1
 OpenBabel09291822493D
Structure written by MMmdl.
 89 93  0  0  1  0  0  0  0  0999 V2000
   24.5887   41.3681   -9.8666 C   0  0  0  0  0  0  0  0  0  0  0  0
   23.6223   42.3992   -9.7578 O   0  0  0  0  0  0  0  0  0  0  0  0
   22.3587   42.0658  -10.3169 C   0  0  0  0  0  0  0  0  0  0  0  0
   21.3193   43.1155   -9.9692 C   0  0  0  0  0  0  0  0  0  0  0  0
   21.6654   44.4782  -10.0617 C   0  0  0  0  0  0  0  0  0  0  0  0
   20.7451   45.4826   -9.7109 C   0  0  0  0  0  0  0  0  0  0  0  0
   19.4628   45.1054   -9.2523 C   0  0  0  0  0  0  0  0  0  0  0  0
   19.0918   43.7441   -9.1682 C   0  0  0  0  0  0  0  0  0  0  0  0
   20.0239   42.7475   -9.5418 C   0  0  0  0  0  0  0  0  0  0  0  0
   17.7346   43.4147   -8.6620 C   0  0  0  0  0  0  0  0  0  0  0  0
   17.1181   44.1545   -7.8982 O   0  0  0  0  0  0  0  0  0  0  0  0
   17.2472   42.2591   -9.1691 O   0  0  0  0  0  0  0  0  0  0  0  0
   15.9127   41.7797   -8.9525 C   0  0  1  0  0  0  0  0  0  0  0  0
   15.5136   41.5021   -7.4683 C   0  0  0  0  0  0  0  0  0  0  0  0
   15.7242   40.1183   -6.9632 N   0  3  0  0  0  0  0  0  0  0  0  0
   15.9325   39.0523   -7.9735 C   0  0  0  0  0  0  0  0  0  0  0  0
   15.1526   37.8130   -7.7240 C   0  0  0  0  0  0  0  0  0  0  0  0
   14.6914   38.7386   -8.8054 C   0  0  0  0  0  0  0  0  0  0  0  0
   17.3421   38.9671   -8.4978 C   0  0  0  0  0  0  0  0  0  0  0  0
   18.4191   38.9255   -7.5883 C   0  0  0  0  0  0  0  0  0  0  0  0
   19.7575   38.9342   -8.0366 C   0  0  0  0  0  0  0  0  0  0  0  0
   20.0099   38.9179   -9.4293 C   0  0  0  0  0  0  0  0  0  0  0  0
   18.9449   38.9158  -10.3464 C   0  0  0  0  0  0  0  0  0  0  0  0
   17.6197   38.9458   -9.8832 C   0  0  0  0  0  0  0  0  0  0  0  0
   20.8831   38.9539   -7.0016 C   0  0  0  0  0  0  0  0  0  0  0  0
   22.2888   38.9876   -7.6149 C   0  0  0  0  0  0  0  0  0  0  0  0
   20.7312   40.1214   -6.0088 C   0  0  0  0  0  0  0  0  0  0  0  0
   14.8246   42.4097   -9.8669 C   0  0  1  0  0  0  0  0  0  0  0  0
   13.6601   41.5062  -10.0401 N   0  3  0  0  0  0  0  0  0  0  0  0
   14.3408   43.8318   -9.5261 C   0  0  0  0  0  0  0  0  0  0  0  0
   14.4221   44.7530  -10.7318 C   0  0  0  0  0  0  0  0  0  0  0  0
   15.5697   45.5508  -10.9381 C   0  0  0  0  0  0  0  0  0  0  0  0
   15.6170   46.4597  -12.0171 C   0  0  0  0  0  0  0  0  0  0  0  0
   14.5167   46.5564  -12.8895 C   0  0  0  0  0  0  0  0  0  0  0  0
   13.3791   45.7488  -12.7037 C   0  0  0  0  0  0  0  0  0  0  0  0
   13.3348   44.8412  -11.6296 C   0  0  0  0  0  0  0  0  0  0  0  0
   16.7165   47.2402  -12.2658 O   0  0  0  0  0  0  0  0  0  0  0  0
   17.0893   48.1263  -11.2191 C   0  0  0  0  0  0  0  0  0  0  0  0
   18.4034   48.8139  -11.6146 C   0  0  0  0  0  0  0  0  0  0  0  0
   19.6217   47.8921  -11.4582 C   0  0  0  0  0  0  0  0  0  0  0  0
   20.1687   47.8763  -10.0200 C   0  0  0  0  0  0  0  0  0  0  0  0
   21.1517   46.8214   -9.8191 N   0  0  0  0  0  0  0  0  0  0  0  0
   15.9898   40.8322   -9.4621 H   0  0  0  0  0  0  0  0  0  0  0  0
   15.2884   42.4482  -10.8528 H   0  0  0  0  0  0  0  0  0  0  0  0
   25.5691   41.7561   -9.5915 H   0  0  0  0  0  0  0  0  0  0  0  0
   24.6575   40.9763  -10.8777 H   0  0  0  0  0  0  0  0  0  0  0  0
   24.3591   40.5458   -9.1931 H   0  0  0  0  0  0  0  0  0  0  0  0
   22.0261   41.0908   -9.9667 H   0  0  0  0  0  0  0  0  0  0  0  0
   22.4458   42.0023  -11.4026 H   0  0  0  0  0  0  0  0  0  0  0  0
   22.6577   44.7472  -10.3968 H   0  0  0  0  0  0  0  0  0  0  0  0
   18.7471   45.8554   -8.9548 H   0  0  0  0  0  0  0  0  0  0  0  0
   19.7655   41.7016   -9.4656 H   0  0  0  0  0  0  0  0  0  0  0  0
   14.4600   41.7333   -7.3186 H   0  0  0  0  0  0  0  0  0  0  0  0
   16.0592   42.1498   -6.7886 H   0  0  0  0  0  0  0  0  0  0  0  0
   14.9540   39.8706   -6.3506 H   0  0  0  0  0  0  0  0  0  0  0  0
   15.6600   36.9014   -8.0400 H   0  0  0  0  0  0  0  0  0  0  0  0
   14.5056   37.7498   -6.8475 H   0  0  0  0  0  0  0  0  0  0  0  0
   13.7451   39.2319   -8.5882 H   0  0  0  0  0  0  0  0  0  0  0  0
   14.8012   38.3677   -9.8217 H   0  0  0  0  0  0  0  0  0  0  0  0
   18.2152   38.9057   -6.5287 H   0  0  0  0  0  0  0  0  0  0  0  0
   21.0149   38.9066   -9.8233 H   0  0  0  0  0  0  0  0  0  0  0  0
   19.1460   38.8996  -11.4081 H   0  0  0  0  0  0  0  0  0  0  0  0
   16.8224   38.9561  -10.6105 H   0  0  0  0  0  0  0  0  0  0  0  0
   20.7946   38.0234   -6.4405 H   0  0  0  0  0  0  0  0  0  0  0  0
   22.4600   38.1499   -8.2893 H   0  0  0  0  0  0  0  0  0  0  0  0
   23.0487   38.9501   -6.8400 H   0  0  0  0  0  0  0  0  0  0  0  0
   22.4475   39.9103   -8.1646 H   0  0  0  0  0  0  0  0  0  0  0  0
   19.8021   40.0605   -5.4425 H   0  0  0  0  0  0  0  0  0  0  0  0
   20.7429   41.0839   -6.5229 H   0  0  0  0  0  0  0  0  0  0  0  0
   21.5427   40.1232   -5.2803 H   0  0  0  0  0  0  0  0  0  0  0  0
   13.1391   41.3750   -9.1702 H   0  0  0  0  0  0  0  0  0  0  0  0
   13.0190   41.8928  -10.7163 H   0  0  0  0  0  0  0  0  0  0  0  0
   14.8940   44.2758   -8.7061 H   0  0  0  0  0  0  0  0  0  0  0  0
   13.3115   43.8139   -9.1641 H   0  0  0  0  0  0  0  0  0  0  0  0
   16.4103   45.4762  -10.2649 H   0  0  0  0  0  0  0  0  0  0  0  0
   14.5515   47.2521  -13.7160 H   0  0  0  0  0  0  0  0  0  0  0  0
   12.5431   45.8249  -13.3848 H   0  0  0  0  0  0  0  0  0  0  0  0
   12.4552   44.2309  -11.4870 H   0  0  0  0  0  0  0  0  0  0  0  0
   16.3074   48.8769  -11.1037 H   0  0  0  0  0  0  0  0  0  0  0  0
   17.1952   47.6185  -10.2595 H   0  0  0  0  0  0  0  0  0  0  0  0
   18.5480   49.7140  -11.0161 H   0  0  0  0  0  0  0  0  0  0  0  0
   18.3271   49.1493  -12.6497 H   0  0  0  0  0  0  0  0  0  0  0  0
   20.4165   48.2266  -12.1265 H   0  0  0  0  0  0  0  0  0  0  0  0
   19.3582   46.8853  -11.7871 H   0  0  0  0  0  0  0  0  0  0  0  0
   19.3650   47.7995   -9.2918 H   0  0  0  0  0  0  0  0  0  0  0  0
   20.6520   48.8311   -9.8112 H   0  0  0  0  0  0  0  0  0  0  0  0
   22.0869   46.9959  -10.1637 H   0  0  0  0  0  0  0  0  0  0  0  0
   13.9435   40.5916  -10.3640 H   0  0  0  0  0  0  0  0  0  0  0  0
   16.5510   40.1325   -6.3793 H   0  0  0  0  0  0  0  0  0  0  0  0
  1  2  1  0  0  0  0
  1 45  1  0  0  0  0
  1 46  1  0  0  0  0
  1 47  1  0  0  0  0
  2  3  1  0  0  0  0
  3  4  1  0  0  0  0
  3 48  1  0  0  0  0
  3 49  1  0  0  0  0
  4  9  1  0  0  0  0
  4  5  2  0  0  0  0
  5  6  1  0  0  0  0
  5 50  1  0  0  0  0
  6 42  1  0  0  0  0
  6  7  2  0  0  0  0
  7  8  1  0  0  0  0
  7 51  1  0  0  0  0
  8  9  2  0  0  0  0
  8 10  1  0  0  0  0
  9 52  1  0  0  0  0
 10 11  2  0  0  0  0
 10 12  1  0  0  0  0
 12 13  1  0  0  0  0
 13 43  1  0  0  0  0
 13 14  1  0  0  0  0
 13 28  1  6  0  0  0
 14 15  1  0  0  0  0
 14 53  1  0  0  0  0
 14 54  1  0  0  0  0
 15 16  1  0  0  0  0
 15 55  1  0  0  0  0
 15 89  1  0  0  0  0
 16 18  1  0  0  0  0
 16 17  1  0  0  0  0
 16 19  1  0  0  0  0
 17 18  1  0  0  0  0
 17 56  1  0  0  0  0
 17 57  1  0  0  0  0
 18 58  1  0  0  0  0
 18 59  1  0  0  0  0
 19 24  1  0  0  0  0
 19 20  2  0  0  0  0
 20 21  1  0  0  0  0
 20 60  1  0  0  0  0
 21 22  2  0  0  0  0
 21 25  1  0  0  0  0
 22 23  1  0  0  0  0
 22 61  1  0  0  0  0
 23 24  2  0  0  0  0
 23 62  1  0  0  0  0
 24 63  1  0  0  0  0
 25 26  1  0  0  0  0
 25 27  1  0  0  0  0
 25 64  1  0  0  0  0
 26 65  1  0  0  0  0
 26 66  1  0  0  0  0
 26 67  1  0  0  0  0
 27 68  1  0  0  0  0
 27 69  1  0  0  0  0
 27 70  1  0  0  0  0
 28 44  1  6  0  0  0
 28 29  1  0  0  0  0
 28 30  1  0  0  0  0
 29 71  1  0  0  0  0
 29 72  1  0  0  0  0
 29 88  1  0  0  0  0
 30 31  1  0  0  0  0
 30 73  1  0  0  0  0
 30 74  1  0  0  0  0
 31 36  1  0  0  0  0
 31 32  2  0  0  0  0
 32 33  1  0  0  0  0
 32 75  1  0  0  0  0
 33 34  2  0  0  0  0
 33 37  1  0  0  0  0
 34 35  1  0  0  0  0
 34 76  1  0  0  0  0
 35 36  2  0  0  0  0
 35 77  1  0  0  0  0
 36 78  1  0  0  0  0
 37 38  1  0  0  0  0
 38 39  1  0  0  0  0
 38 79  1  0  0  0  0
 38 80  1  0  0  0  0
 39 40  1  0  0  0  0
 39 81  1  0  0  0  0
 39 82  1  0  0  0  0
 40 41  1  0  0  0  0
 40 83  1  0  0  0  0
 40 84  1  0  0  0  0
 41 42  1  0  0  0  0
 41 85  1  0  0  0  0
 41 86  1  0  0  0  0
 42 87  1  0  0  0  0
M  CHG  2  15   1  29   1
M  END
>  <s_m_source_file>
BACE_144.smi

>  <i_m_source_file_index>
1

>  <i_lp_mmshare_version>
42013

>  <i_f3d_flags>
0

>  <s_epik_input>
W2NIXTFbY0hdW2NIXWMoW0NIXShbQ0gzXSlbQ0gzXSlbY0hdYzFDMihbQ0gyXVtDSDJdMilbTkhdW0NIMl1bQ0BIXShPQyg9TyljKFtjSF0zKVtjSF1jKFtjSF1jMzQpW0NIMl1PW0NIM10pW0NAQEhdKFtOSDJdKVtDSDJdYzVbY0hdYyhbY0hdW2NIXVtjSF01KU9bQ0gyXVtDSDJdW0NIMl1bQ0gyXVtOSF00

>  <s_epik_cmdline>
J2VwaWtfcHl0aG9uJywgJy1waCcsICc3LjAnLCAnLXRuJywgJzgnLCAnLW1hJywgJzIwMCcsICctaW1hZScsICc8aW5maWxlLm1hZT4nLCAnLW9tYWUnLCAnPG91dGZpbGUubWFlPic=

>  <r_lp_tautomer_probability>
1

>  <r_epik_Ionization_Penalty>
1.9371

>  <r_epik_Ionization_Penalty_Charging>
1.9369

>  <r_epik_Ionization_Penalty_Neutral>
0.0002

>  <r_epik_State_Penalty>
1.9145

>  <r_epik_Charging_Adjusted_Penalty>
3.85135

>  <i_epik_Tot_Q>
2

>  <i_epik_Tot_abs_Q>
2

>  <s_epik_Chemistry_Notes>
This compound has an ester and may undergo hydrolysis at high or low pH.

>  <s_lp_Force_Field>
OPLS_2005

>  <r_lp_Energy>
46.1328

>  <b_lp_Chiralities_Consistent>
1

>  <s_lp_Variant>
BACE_144.smi:1-2

>  <chiral flag>
1

>  <version>
0

>  <s_i_glide_gridfile>
second_dock_grid_2

>  <i_i_glide_lignum>
294

>  <i_i_glide_rotatable_bonds>
7

>  <r_i_docking_score>
-2.95691

>  <r_i_glide_ligand_efficiency>
-0.0704027

>  <r_i_glide_ligand_efficiency_sa>
-0.244721

>  <r_i_glide_ligand_efficiency_ln>
-0.624128

>  <r_glide_XP_GScore>
-4.87141

>  <r_i_glide_gscore>
-4.87141

>  <r_i_glide_evdw>
-34.2676

>  <r_i_glide_ecoul>
-18.0514

>  <r_i_glide_energy>
-52.319

>  <r_i_glide_einternal>
4.78135

>  <r_i_glide_emodel>
-70.1009

>  <r_glide_XP_HBond>
0

>  <i_i_glide_confnum>
1

>  <i_i_glide_posenum>
2

>  <r_i_glide_eff_state_penalty>
1.9145

>  <i_glide_XP_PoseRank>
1

$$$$
