BACE_33.smi:1
 OpenBabel09291822493D
Structure written by MMmdl.
 87 88  0  0  1  0  0  0  0  0999 V2000
   22.3203   40.1299   -4.1593 C   0  0  0  0  0  0  0  0  0  0  0  0
   21.1553   40.6115   -5.0376 C   0  0  0  0  0  0  0  0  0  0  0  0
   20.8999   42.1177   -4.8643 C   0  0  0  0  0  0  0  0  0  0  0  0
   21.3704   40.2330   -6.4980 C   0  0  0  0  0  0  0  0  0  0  0  0
   20.5644   39.2394   -7.0951 C   0  0  0  0  0  0  0  0  0  0  0  0
   20.7437   38.8846   -8.4506 C   0  0  0  0  0  0  0  0  0  0  0  0
   19.8895   37.8060   -9.0955 C   0  0  0  0  0  0  0  0  0  0  0  0
   18.5368   38.2110   -9.4406 N   0  0  0  0  0  0  0  0  0  0  0  0
   17.5882   38.1700   -8.3257 C   0  0  0  0  0  0  0  0  0  0  0  0
   16.1608   38.5630   -8.7572 C   0  0  1  0  0  0  0  0  0  0  0  0
   15.3309   38.3051   -7.6401 O   0  0  0  0  0  0  0  0  0  0  0  0
   15.9979   40.0666   -9.1300 C   0  0  2  0  0  0  0  0  0  0  0  0
   14.5197   40.4693   -9.4038 C   0  0  0  0  0  0  0  0  0  0  0  0
   14.1932   41.9751   -9.6278 C   0  0  2  0  0  0  0  0  0  0  0  0
   14.5787   42.4820  -11.0248 C   0  0  0  0  0  0  0  0  0  0  0  0
   14.6745   42.8558   -8.4433 C   0  0  0  0  0  0  0  0  0  0  0  0
   14.6543   44.3837   -8.6432 C   0  0  0  0  0  0  0  0  0  0  0  0
   16.0634   44.9265   -8.9441 C   0  0  0  0  0  0  0  0  0  0  0  0
   16.1032   46.4294   -9.2484 C   0  0  0  0  0  0  0  0  0  0  0  0
   17.5215   47.0343   -9.2566 C   0  0  0  0  0  0  0  0  0  0  0  0
   18.5502   46.3291  -10.1673 C   0  0  2  0  0  0  0  0  0  0  0  0
   19.9487   46.9325   -9.9375 C   0  0  0  0  0  0  0  0  0  0  0  0
   18.1594   46.3896  -11.6620 C   0  0  0  0  0  0  0  0  0  0  0  0
   18.8552   45.3397  -12.5494 C   0  0  0  0  0  0  0  0  0  0  0  0
   18.2683   43.9241  -12.3889 C   0  0  0  0  0  0  0  0  0  0  0  0
   17.1350   43.7435  -12.8399 O   0  0  0  0  0  0  0  0  0  0  0  0
   18.9960   42.9239  -11.8237 N   0  0  0  0  0  0  0  0  0  0  0  0
   20.3256   43.1516  -11.2302 C   0  0  0  0  0  0  0  0  0  0  0  0
   18.4225   41.5580  -11.7177 C   0  0  1  0  0  0  0  0  0  0  0  0
   19.4692   40.4705  -12.0451 C   0  0  0  0  0  0  0  0  0  0  0  0
   17.8179   41.2968  -10.3287 C   0  0  0  0  0  0  0  0  0  0  0  0
   18.2411   41.8748   -9.3292 O   0  0  0  0  0  0  0  0  0  0  0  0
   16.8065   40.4151  -10.2983 N   0  0  0  0  0  0  0  0  0  0  0  0
   21.7609   39.5103   -9.2003 C   0  0  0  0  0  0  0  0  0  0  0  0
   22.5713   40.4976   -8.6116 C   0  0  0  0  0  0  0  0  0  0  0  0
   22.3753   40.8608   -7.2663 C   0  0  0  0  0  0  0  0  0  0  0  0
   15.8312   37.9268   -9.5795 H   0  0  0  0  0  0  0  0  0  0  0  0
   16.3538   40.6099   -8.2565 H   0  0  0  0  0  0  0  0  0  0  0  0
   13.1041   42.0362   -9.6399 H   0  0  0  0  0  0  0  0  0  0  0  0
   18.5970   45.2870   -9.8537 H   0  0  0  0  0  0  0  0  0  0  0  0
   17.6163   41.4225  -12.4399 H   0  0  0  0  0  0  0  0  0  0  0  0
   22.4590   39.0516   -4.2480 H   0  0  0  0  0  0  0  0  0  0  0  0
   22.1380   40.3479   -3.1074 H   0  0  0  0  0  0  0  0  0  0  0  0
   23.2598   40.6082   -4.4370 H   0  0  0  0  0  0  0  0  0  0  0  0
   20.2531   40.1023   -4.6966 H   0  0  0  0  0  0  0  0  0  0  0  0
   20.0609   42.4419   -5.4811 H   0  0  0  0  0  0  0  0  0  0  0  0
   21.7698   42.7122   -5.1435 H   0  0  0  0  0  0  0  0  0  0  0  0
   20.6564   42.3579   -3.8294 H   0  0  0  0  0  0  0  0  0  0  0  0
   19.8121   38.7403   -6.5039 H   0  0  0  0  0  0  0  0  0  0  0  0
   19.8305   36.9501   -8.4419 H   0  0  0  0  0  0  0  0  0  0  0  0
   20.4014   37.4730   -9.9960 H   0  0  0  0  0  0  0  0  0  0  0  0
   18.5645   39.1694   -9.7738 H   0  0  0  0  0  0  0  0  0  0  0  0
   17.9033   38.8393   -7.5263 H   0  0  0  0  0  0  0  0  0  0  0  0
   17.5731   37.1652   -7.9004 H   0  0  0  0  0  0  0  0  0  0  0  0
   15.6597   37.5668   -7.1189 H   0  0  0  0  0  0  0  0  0  0  0  0
   14.1297   39.8851  -10.2389 H   0  0  0  0  0  0  0  0  0  0  0  0
   13.9369   40.1467   -8.5462 H   0  0  0  0  0  0  0  0  0  0  0  0
   14.0518   43.3993  -11.2842 H   0  0  0  0  0  0  0  0  0  0  0  0
   14.3147   41.7409  -11.7744 H   0  0  0  0  0  0  0  0  0  0  0  0
   15.6388   42.6894  -11.1007 H   0  0  0  0  0  0  0  0  0  0  0  0
   14.0603   42.6008   -7.5815 H   0  0  0  0  0  0  0  0  0  0  0  0
   15.6838   42.5866   -8.1401 H   0  0  0  0  0  0  0  0  0  0  0  0
   14.2995   44.8532   -7.7239 H   0  0  0  0  0  0  0  0  0  0  0  0
   13.9438   44.6665   -9.4184 H   0  0  0  0  0  0  0  0  0  0  0  0
   16.7057   44.7186   -8.0870 H   0  0  0  0  0  0  0  0  0  0  0  0
   16.4914   44.3769   -9.7812 H   0  0  0  0  0  0  0  0  0  0  0  0
   15.5310   46.9500   -8.4875 H   0  0  0  0  0  0  0  0  0  0  0  0
   15.5990   46.6285  -10.1918 H   0  0  0  0  0  0  0  0  0  0  0  0
   17.4545   48.0871   -9.5343 H   0  0  0  0  0  0  0  0  0  0  0  0
   17.8968   47.0215   -8.2321 H   0  0  0  0  0  0  0  0  0  0  0  0
   20.7099   46.4419  -10.5419 H   0  0  0  0  0  0  0  0  0  0  0  0
   20.2523   46.8273   -8.8948 H   0  0  0  0  0  0  0  0  0  0  0  0
   19.9680   47.9945  -10.1847 H   0  0  0  0  0  0  0  0  0  0  0  0
   17.0852   46.2622  -11.7794 H   0  0  0  0  0  0  0  0  0  0  0  0
   18.3700   47.3875  -12.0487 H   0  0  0  0  0  0  0  0  0  0  0  0
   19.9345   45.3815  -12.4382 H   0  0  0  0  0  0  0  0  0  0  0  0
   18.6751   45.6217  -13.5863 H   0  0  0  0  0  0  0  0  0  0  0  0
   20.5725   42.4108  -10.4705 H   0  0  0  0  0  0  0  0  0  0  0  0
   20.3945   44.1027  -10.7100 H   0  0  0  0  0  0  0  0  0  0  0  0
   21.1012   43.1094  -11.9935 H   0  0  0  0  0  0  0  0  0  0  0  0
   19.0142   39.4780  -12.0391 H   0  0  0  0  0  0  0  0  0  0  0  0
   20.2884   40.4378  -11.3294 H   0  0  0  0  0  0  0  0  0  0  0  0
   19.8999   40.6251  -13.0353 H   0  0  0  0  0  0  0  0  0  0  0  0
   16.5510   39.9632  -11.1633 H   0  0  0  0  0  0  0  0  0  0  0  0
   21.9331   39.2276  -10.2286 H   0  0  0  0  0  0  0  0  0  0  0  0
   23.3496   40.9706   -9.1914 H   0  0  0  0  0  0  0  0  0  0  0  0
   23.0032   41.6184   -6.8242 H   0  0  0  0  0  0  0  0  0  0  0  0
  1  2  1  0  0  0  0
  1 42  1  0  0  0  0
  1 43  1  0  0  0  0
  1 44  1  0  0  0  0
  2  3  1  0  0  0  0
  2  4  1  0  0  0  0
  2 45  1  0  0  0  0
  3 46  1  0  0  0  0
  3 47  1  0  0  0  0
  3 48  1  0  0  0  0
  4 36  1  0  0  0  0
  4  5  2  0  0  0  0
  5  6  1  0  0  0  0
  5 49  1  0  0  0  0
  6  7  1  0  0  0  0
  6 34  2  0  0  0  0
  7  8  1  0  0  0  0
  7 50  1  0  0  0  0
  7 51  1  0  0  0  0
  8  9  1  0  0  0  0
  8 52  1  0  0  0  0
  9 10  1  0  0  0  0
  9 53  1  0  0  0  0
  9 54  1  0  0  0  0
 10 37  1  6  0  0  0
 10 11  1  0  0  0  0
 10 12  1  0  0  0  0
 11 55  1  0  0  0  0
 12 38  1  1  0  0  0
 12 33  1  0  0  0  0
 12 13  1  0  0  0  0
 13 14  1  0  0  0  0
 13 56  1  0  0  0  0
 13 57  1  0  0  0  0
 14 39  1  1  0  0  0
 14 15  1  0  0  0  0
 14 16  1  0  0  0  0
 15 58  1  0  0  0  0
 15 59  1  0  0  0  0
 15 60  1  0  0  0  0
 16 17  1  0  0  0  0
 16 61  1  0  0  0  0
 16 62  1  0  0  0  0
 17 18  1  0  0  0  0
 17 63  1  0  0  0  0
 17 64  1  0  0  0  0
 18 19  1  0  0  0  0
 18 65  1  0  0  0  0
 18 66  1  0  0  0  0
 19 20  1  0  0  0  0
 19 67  1  0  0  0  0
 19 68  1  0  0  0  0
 20 21  1  0  0  0  0
 20 69  1  0  0  0  0
 20 70  1  0  0  0  0
 21 40  1  1  0  0  0
 21 22  1  0  0  0  0
 21 23  1  0  0  0  0
 22 71  1  0  0  0  0
 22 72  1  0  0  0  0
 22 73  1  0  0  0  0
 23 24  1  0  0  0  0
 23 74  1  0  0  0  0
 23 75  1  0  0  0  0
 24 25  1  0  0  0  0
 24 76  1  0  0  0  0
 24 77  1  0  0  0  0
 25 26  2  0  0  0  0
 25 27  1  0  0  0  0
 27 28  1  0  0  0  0
 27 29  1  0  0  0  0
 28 78  1  0  0  0  0
 28 79  1  0  0  0  0
 28 80  1  0  0  0  0
 29 41  1  6  0  0  0
 29 30  1  0  0  0  0
 29 31  1  0  0  0  0
 30 81  1  0  0  0  0
 30 82  1  0  0  0  0
 30 83  1  0  0  0  0
 31 32  2  0  0  0  0
 31 33  1  0  0  0  0
 33 84  1  0  0  0  0
 34 35  1  0  0  0  0
 34 85  1  0  0  0  0
 35 36  2  0  0  0  0
 35 86  1  0  0  0  0
 36 87  1  0  0  0  0
M  END
>  <s_m_source_file>
BACE_33.smi

>  <i_m_source_file_index>
1

>  <i_lp_mmshare_version>
42013

>  <i_f3d_flags>
0

>  <s_epik_input>
W0NIM11bQ0hdKFtDSDNdKWMxW2NIXWMoW2NIXVtjSF1bY0hdMSlbQ0gyXVtOSF1bQ0gyXVtDQEBIXShbT0hdKVtDQEBIXTJbQ0gyXVtDQEhdKFtDSDNdKVtDSDJdW0NIMl1bQ0gyXVtDSDJdW0NIMl1bQ0BIXShbQ0gzXSlbQ0gyXVtDSDJdQyg9TylOKFtDSDNdKVtDQEBIXShbQ0gzXSlDKD1PKVtOSF0y

>  <s_epik_cmdline>
J2VwaWtfcHl0aG9uJywgJy1waCcsICc3LjAnLCAnLXRuJywgJzgnLCAnLW1hJywgJzIwMCcsICctaW1hZScsICc8aW5maWxlLm1hZT4nLCAnLW9tYWUnLCAnPG91dGZpbGUubWFlPic=

>  <r_epik_Ionization_Penalty>
2.0739

>  <r_epik_Ionization_Penalty_Charging>
0.0000

>  <r_epik_Ionization_Penalty_Neutral>
2.0739

>  <r_epik_State_Penalty>
2.2081

>  <r_epik_Charging_Adjusted_Penalty>
2.20813

>  <i_epik_Tot_Q>
0

>  <i_epik_Tot_abs_Q>
0

>  <s_lp_Force_Field>
OPLS_2005

>  <r_lp_Energy>
41.848

>  <b_lp_Chiralities_Consistent>
1

>  <s_lp_Variant>
BACE_33.smi:1-2

>  <chiral flag>
1

>  <version>
0

>  <s_i_glide_gridfile>
second_dock_grid_2

>  <i_i_glide_lignum>
58

>  <i_i_glide_rotatable_bonds>
7

>  <r_i_docking_score>
-1.80579

>  <r_i_glide_ligand_efficiency>
-0.0501609

>  <r_i_glide_ligand_efficiency_sa>
-0.165628

>  <r_i_glide_ligand_efficiency_ln>
-0.393975

>  <r_glide_XP_GScore>
-4.01389

>  <r_i_glide_gscore>
-4.01389

>  <r_i_glide_evdw>
-36.3588

>  <r_i_glide_ecoul>
-6.53782

>  <r_i_glide_energy>
-42.8966

>  <r_i_glide_einternal>
3.41217

>  <r_i_glide_emodel>
-60.6701

>  <r_glide_XP_HBond>
-0.7

>  <i_i_glide_confnum>
1

>  <i_i_glide_posenum>
1

>  <r_i_glide_eff_state_penalty>
2.2081

>  <i_glide_XP_PoseRank>
1

$$$$
