BACE_98.smi:1
 OpenBabel09291822493D
Structure written by MMmdl.
 78 82  0  0  1  0  0  0  0  0999 V2000
   16.9240   48.1801  -10.7920 C   0  0  0  0  0  0  0  0  0  0  0  0
   16.6449   47.7368  -12.2338 C   0  0  0  0  0  0  0  0  0  0  0  0
   17.8652   47.0574  -12.8694 C   0  0  0  0  0  0  0  0  0  0  0  0
   15.4018   46.8597  -12.3401 C   0  0  0  0  0  0  0  0  0  0  0  0
   14.3937   47.1878  -13.2697 C   0  0  0  0  0  0  0  0  0  0  0  0
   13.2597   46.3630  -13.3772 C   0  0  0  0  0  0  0  0  0  0  0  0
   13.1450   45.2797  -12.5802 N   0  3  0  0  0  0  0  0  0  0  0  0
   14.0544   44.9263  -11.6424 C   0  0  0  0  0  0  0  0  0  0  0  0
   15.2220   45.7212  -11.5187 C   0  0  0  0  0  0  0  0  0  0  0  0
   13.7250   43.7084  -10.7908 C   0  0  0  0  0  0  0  0  0  0  0  0
   12.2788   43.3796  -10.4736 C   0  0  0  0  0  0  0  0  0  0  0  0
   13.0568   42.4940  -11.4188 C   0  0  0  0  0  0  0  0  0  0  0  0
   14.6470   43.5523   -9.6494 N   0  0  0  0  0  0  0  0  0  0  0  0
   15.3238   42.2509   -9.4746 C   0  0  0  0  0  0  0  0  0  0  0  0
   16.3020   41.8331  -10.6171 C   0  0  1  0  0  0  0  0  0  0  0  0
   16.4209   42.7970  -11.6414 O   0  0  0  0  0  0  0  0  0  0  0  0
   17.7559   41.5053  -10.1775 C   0  0  2  0  0  0  0  0  0  0  0  0
   17.9078   40.0505   -9.6858 C   0  0  0  0  0  0  0  0  0  0  0  0
   19.3497   39.7299   -9.3307 C   0  0  0  0  0  0  0  0  0  0  0  0
   20.3057   39.6110  -10.3607 C   0  0  0  0  0  0  0  0  0  0  0  0
   21.6593   39.3999  -10.0447 C   0  0  0  0  0  0  0  0  0  0  0  0
   22.0588   39.2836   -8.7010 C   0  0  0  0  0  0  0  0  0  0  0  0
   21.1079   39.3867   -7.6652 C   0  0  0  0  0  0  0  0  0  0  0  0
   21.5526   39.2440   -6.2208 C   0  0  0  0  0  0  0  0  0  0  0  0
   22.2060   40.5118   -5.6467 C   0  0  0  0  0  0  0  0  0  0  0  0
   21.1878   41.5406   -5.1240 C   0  0  0  0  0  0  0  0  0  0  0  0
   21.7532   42.9732   -5.1361 C   0  0  0  0  0  0  0  0  0  0  0  0
   20.7478   43.9853   -4.8401 N   0  0  0  0  0  0  0  0  0  0  0  0
   19.9898   44.5378   -5.8831 C   0  0  0  0  0  0  0  0  0  0  0  0
   19.7227   43.8526   -7.0884 C   0  0  0  0  0  0  0  0  0  0  0  0
   18.8542   44.4447   -8.0279 C   0  0  0  0  0  0  0  0  0  0  0  0
   18.3410   45.7262   -7.7549 C   0  0  0  0  0  0  0  0  0  0  0  0
   18.6995   46.3562   -6.5547 C   0  0  0  0  0  0  0  0  0  0  0  0
   18.0608   47.9196   -6.2082 Cl  0  0  0  0  0  0  0  0  0  0  0  0
   19.4917   45.7666   -5.6401 N   0  0  0  0  0  0  0  0  0  0  0  0
   18.4714   43.7353   -9.2886 C   0  0  0  0  0  0  0  0  0  0  0  0
   18.2867   44.3579  -10.3362 O   0  0  0  0  0  0  0  0  0  0  0  0
   18.2561   42.4198   -9.1492 N   0  0  0  0  0  0  0  0  0  0  0  0
   19.7510   39.6103   -7.9820 C   0  0  0  0  0  0  0  0  0  0  0  0
   15.8808   40.9551  -11.1083 H   0  0  0  0  0  0  0  0  0  0  0  0
   18.4133   41.6012  -11.0453 H   0  0  0  0  0  0  0  0  0  0  0  0
   16.0601   48.6817  -10.3572 H   0  0  0  0  0  0  0  0  0  0  0  0
   17.7657   48.8715  -10.7486 H   0  0  0  0  0  0  0  0  0  0  0  0
   17.1686   47.3317  -10.1591 H   0  0  0  0  0  0  0  0  0  0  0  0
   16.4547   48.6466  -12.8059 H   0  0  0  0  0  0  0  0  0  0  0  0
   17.7038   46.8937  -13.9345 H   0  0  0  0  0  0  0  0  0  0  0  0
   18.0767   46.0931  -12.4065 H   0  0  0  0  0  0  0  0  0  0  0  0
   18.7607   47.6723  -12.7688 H   0  0  0  0  0  0  0  0  0  0  0  0
   14.4999   48.0455  -13.9218 H   0  0  0  0  0  0  0  0  0  0  0  0
   12.4568   46.5250  -14.0838 H   0  0  0  0  0  0  0  0  0  0  0  0
   15.9752   45.4608  -10.7898 H   0  0  0  0  0  0  0  0  0  0  0  0
   12.0459   42.9529   -9.4989 H   0  0  0  0  0  0  0  0  0  0  0  0
   11.4870   43.9871  -10.9053 H   0  0  0  0  0  0  0  0  0  0  0  0
   12.7878   42.5407  -12.4715 H   0  0  0  0  0  0  0  0  0  0  0  0
   13.2690   41.4930  -11.0545 H   0  0  0  0  0  0  0  0  0  0  0  0
   14.1178   43.7054   -8.7962 H   0  0  0  0  0  0  0  0  0  0  0  0
   15.8503   42.2707   -8.5211 H   0  0  0  0  0  0  0  0  0  0  0  0
   14.5865   41.4616   -9.3259 H   0  0  0  0  0  0  0  0  0  0  0  0
   16.9460   43.5063  -11.2799 H   0  0  0  0  0  0  0  0  0  0  0  0
   17.5803   39.3561  -10.4621 H   0  0  0  0  0  0  0  0  0  0  0  0
   17.2655   39.8707   -8.8221 H   0  0  0  0  0  0  0  0  0  0  0  0
   20.0075   39.7091  -11.3943 H   0  0  0  0  0  0  0  0  0  0  0  0
   22.3930   39.3428  -10.8359 H   0  0  0  0  0  0  0  0  0  0  0  0
   23.1010   39.1162   -8.4655 H   0  0  0  0  0  0  0  0  0  0  0  0
   20.6958   38.9505   -5.6201 H   0  0  0  0  0  0  0  0  0  0  0  0
   22.2627   38.4204   -6.1764 H   0  0  0  0  0  0  0  0  0  0  0  0
   22.8583   40.2326   -4.8186 H   0  0  0  0  0  0  0  0  0  0  0  0
   22.8578   40.9517   -6.4027 H   0  0  0  0  0  0  0  0  0  0  0  0
   20.2813   41.4807   -5.7224 H   0  0  0  0  0  0  0  0  0  0  0  0
   20.8747   41.2723   -4.1138 H   0  0  0  0  0  0  0  0  0  0  0  0
   22.5538   43.0548   -4.4006 H   0  0  0  0  0  0  0  0  0  0  0  0
   22.2058   43.1966   -6.1032 H   0  0  0  0  0  0  0  0  0  0  0  0
   20.8585   44.5282   -3.9863 H   0  0  0  0  0  0  0  0  0  0  0  0
   20.1429   42.8812   -7.2937 H   0  0  0  0  0  0  0  0  0  0  0  0
   17.6672   46.2091   -8.4404 H   0  0  0  0  0  0  0  0  0  0  0  0
   18.4273   42.0216   -8.2363 H   0  0  0  0  0  0  0  0  0  0  0  0
   19.0214   39.7038   -7.1897 H   0  0  0  0  0  0  0  0  0  0  0  0
   12.3277   44.6799  -12.6964 H   0  0  0  0  0  0  0  0  0  0  0  0
  1  2  1  0  0  0  0
  1 42  1  0  0  0  0
  1 43  1  0  0  0  0
  1 44  1  0  0  0  0
  2  3  1  0  0  0  0
  2  4  1  0  0  0  0
  2 45  1  0  0  0  0
  3 46  1  0  0  0  0
  3 47  1  0  0  0  0
  3 48  1  0  0  0  0
  4  9  1  0  0  0  0
  4  5  2  0  0  0  0
  5  6  1  0  0  0  0
  5 49  1  0  0  0  0
  6  7  2  0  0  0  0
  6 50  1  0  0  0  0
  7  8  1  0  0  0  0
  7 78  1  0  0  0  0
  8  9  2  0  0  0  0
  8 10  1  0  0  0  0
  9 51  1  0  0  0  0
 10 12  1  0  0  0  0
 10 11  1  0  0  0  0
 10 13  1  0  0  0  0
 11 12  1  0  0  0  0
 11 52  1  0  0  0  0
 11 53  1  0  0  0  0
 12 54  1  0  0  0  0
 12 55  1  0  0  0  0
 13 14  1  0  0  0  0
 13 56  1  0  0  0  0
 14 15  1  0  0  0  0
 14 57  1  0  0  0  0
 14 58  1  0  0  0  0
 15 40  1  6  0  0  0
 15 16  1  0  0  0  0
 15 17  1  0  0  0  0
 16 59  1  0  0  0  0
 17 41  1  6  0  0  0
 17 38  1  0  0  0  0
 17 18  1  0  0  0  0
 18 19  1  0  0  0  0
 18 60  1  0  0  0  0
 18 61  1  0  0  0  0
 19 39  1  0  0  0  0
 19 20  2  0  0  0  0
 20 21  1  0  0  0  0
 20 62  1  0  0  0  0
 21 22  2  0  0  0  0
 21 63  1  0  0  0  0
 22 23  1  0  0  0  0
 22 64  1  0  0  0  0
 23 24  1  0  0  0  0
 23 39  2  0  0  0  0
 24 25  1  0  0  0  0
 24 65  1  0  0  0  0
 24 66  1  0  0  0  0
 25 26  1  0  0  0  0
 25 67  1  0  0  0  0
 25 68  1  0  0  0  0
 26 27  1  0  0  0  0
 26 69  1  0  0  0  0
 26 70  1  0  0  0  0
 27 28  1  0  0  0  0
 27 71  1  0  0  0  0
 27 72  1  0  0  0  0
 28 29  1  0  0  0  0
 28 73  1  0  0  0  0
 29 35  1  0  0  0  0
 29 30  2  0  0  0  0
 30 31  1  0  0  0  0
 30 74  1  0  0  0  0
 31 32  2  0  0  0  0
 31 36  1  0  0  0  0
 32 33  1  0  0  0  0
 32 75  1  0  0  0  0
 33 34  1  0  0  0  0
 33 35  2  0  0  0  0
 36 37  2  0  0  0  0
 36 38  1  0  0  0  0
 38 76  1  0  0  0  0
 39 77  1  0  0  0  0
M  CHG  1   7   1
M  END
>  <s_m_source_file>
BACE_98.smi

>  <i_m_source_file_index>
1

>  <i_lp_mmshare_version>
42013

>  <i_f3d_flags>
0

>  <s_epik_input>
W0NIM11bQ0hdKFtDSDNdKWMxW2NIXVtjSF1uYyhbY0hdMSlDMihbQ0gyXVtDSDJdMilbTkhdW0NIMl1bQ0BASF0oW09IXSlbQ0BIXShbQ0gyXTMpW05IXUMoPU8pYyhbY0hdYyhDbCluNClbY0hdYzRbTkhdW0NIMl1bQ0gyXVtDSDJdW0NIMl1jKFtjSF01KVtjSF1bY0hdW2NIXWMzNQ==

>  <s_epik_cmdline>
J2VwaWtfcHl0aG9uJywgJy1waCcsICc3LjAnLCAnLXRuJywgJzgnLCAnLW1hJywgJzIwMCcsICctaW1hZScsICc8aW5maWxlLm1hZT4nLCAnLW9tYWUnLCAnPG91dGZpbGUubWFlPic=

>  <r_epik_Ionization_Penalty>
2.3716

>  <r_epik_Ionization_Penalty_Charging>
2.3716

>  <r_epik_Ionization_Penalty_Neutral>
0.0000

>  <r_epik_State_Penalty>
1.5055

>  <r_epik_Charging_Adjusted_Penalty>
3.87712

>  <i_epik_Tot_Q>
1

>  <i_epik_Tot_abs_Q>
1

>  <s_lp_Force_Field>
OPLS_2005

>  <r_lp_Energy>
30.9301

>  <b_lp_Chiralities_Consistent>
1

>  <s_lp_Variant>
BACE_98.smi:1-2

>  <chiral flag>
1

>  <version>
0

>  <s_i_glide_gridfile>
second_dock_grid_2

>  <i_i_glide_lignum>
200

>  <i_i_glide_rotatable_bonds>
7

>  <r_i_docking_score>
2.82753

>  <r_i_glide_ligand_efficiency>
0.0725007

>  <r_i_glide_ligand_efficiency_sa>
0.245865

>  <r_i_glide_ligand_efficiency_ln>
0.606302

>  <r_glide_XP_GScore>
1.32203

>  <r_i_glide_gscore>
1.32203

>  <r_i_glide_evdw>
-39.178

>  <r_i_glide_ecoul>
-13.5765

>  <r_i_glide_energy>
-52.7545

>  <r_i_glide_einternal>
3.63983

>  <r_i_glide_emodel>
-78.8491

>  <r_glide_XP_HBond>
0

>  <i_i_glide_confnum>
1

>  <i_i_glide_posenum>
1

>  <r_i_glide_eff_state_penalty>
1.5055

>  <i_glide_XP_PoseRank>
2

$$$$
