BACE_23.smi:1
 OpenBabel09291822493D
Structure written by MMmdl.
 90 92  0  0  1  0  0  0  0  0999 V2000
   23.2667   44.6356   -7.7536 C   0  0  0  0  0  0  0  0  0  0  0  0
   22.5770   44.5394   -6.3761 C   0  0  2  0  0  0  0  0  0  0  0  0
   23.5398   44.9654   -5.2396 C   0  0  0  0  0  0  0  0  0  0  0  0
   23.9137   46.4625   -5.2151 C   0  0  0  0  0  0  0  0  0  0  0  0
   22.8171   47.3754   -4.6311 C   0  0  0  0  0  0  0  0  0  0  0  0
   22.9658   48.8645   -4.9973 C   0  0  0  0  0  0  0  0  0  0  0  0
   22.7052   49.2075   -6.4799 C   0  0  0  0  0  0  0  0  0  0  0  0
   21.3178   48.8138   -7.0193 C   0  0  0  0  0  0  0  0  0  0  0  0
   20.1413   49.5412   -6.3349 C   0  0  0  0  0  0  0  0  0  0  0  0
   18.7620   49.1077   -6.8702 C   0  0  0  0  0  0  0  0  0  0  0  0
   18.4339   47.6474   -6.4963 C   0  0  0  0  0  0  0  0  0  0  0  0
   18.4580   47.3565   -5.2983 O   0  0  0  0  0  0  0  0  0  0  0  0
   18.1572   46.7328   -7.4625 N   0  0  0  0  0  0  0  0  0  0  0  0
   18.0605   47.1180   -8.8804 C   0  0  0  0  0  0  0  0  0  0  0  0
   18.0588   45.2910   -7.1213 C   0  0  1  0  0  0  0  0  0  0  0  0
   16.7406   44.6776   -7.6379 C   0  0  0  0  0  0  0  0  0  0  0  0
   19.2736   44.4925   -7.6120 C   0  0  0  0  0  0  0  0  0  0  0  0
   19.8533   44.8036   -8.6521 O   0  0  0  0  0  0  0  0  0  0  0  0
   19.6670   43.4746   -6.8295 N   0  0  0  0  0  0  0  0  0  0  0  0
   20.8607   42.6595   -7.0431 C   0  0  1  0  0  0  0  0  0  0  0  0
   22.0269   43.1103   -6.1205 C   0  0  0  0  0  0  0  0  0  0  0  0
   20.4884   41.1572   -6.9499 C   0  0  2  0  0  0  0  0  0  0  0  0
   20.4600   40.7403   -5.5984 O   0  0  0  0  0  0  0  0  0  0  0  0
   21.4732   40.2402   -7.7140 C   0  0  0  0  0  0  0  0  0  0  0  0
   21.5769   40.5507   -9.1497 N   0  0  0  0  0  0  0  0  0  0  0  0
   20.5513   39.9871  -10.0396 C   0  0  0  0  0  0  0  0  0  0  0  0
   20.6960   38.5397  -10.4316 C   0  0  0  0  0  0  0  0  0  0  0  0
   21.0114   39.6204  -11.4346 C   0  0  0  0  0  0  0  0  0  0  0  0
   19.1845   40.6031   -9.9031 C   0  0  0  0  0  0  0  0  0  0  0  0
   18.1187   39.9057   -9.2966 C   0  0  0  0  0  0  0  0  0  0  0  0
   16.8542   40.5296   -9.1792 C   0  0  0  0  0  0  0  0  0  0  0  0
   16.7334   41.8390   -9.6981 C   0  0  0  0  0  0  0  0  0  0  0  0
   17.8544   42.4505  -10.2901 C   0  0  0  0  0  0  0  0  0  0  0  0
   19.0537   41.8507  -10.4003 N   0  0  0  0  0  0  0  0  0  0  0  0
   15.6474   39.8446   -8.5119 C   0  0  0  0  0  0  0  0  0  0  0  0
   14.4588   39.8106   -9.4949 C   0  0  0  0  0  0  0  0  0  0  0  0
   15.9446   38.3901   -8.0908 C   0  0  0  0  0  0  0  0  0  0  0  0
   15.2448   40.6251   -7.2460 C   0  0  0  0  0  0  0  0  0  0  0  0
   21.7364   45.2307   -6.3661 H   0  0  0  0  0  0  0  0  0  0  0  0
   18.0486   45.1532   -6.0407 H   0  0  0  0  0  0  0  0  0  0  0  0
   21.1769   42.8154   -8.0718 H   0  0  0  0  0  0  0  0  0  0  0  0
   19.4831   41.0068   -7.3297 H   0  0  0  0  0  0  0  0  0  0  0  0
   23.6265   45.6404   -7.9619 H   0  0  0  0  0  0  0  0  0  0  0  0
   22.5891   44.3897   -8.5695 H   0  0  0  0  0  0  0  0  0  0  0  0
   24.1181   43.9591   -7.8155 H   0  0  0  0  0  0  0  0  0  0  0  0
   23.1128   44.7024   -4.2715 H   0  0  0  0  0  0  0  0  0  0  0  0
   24.4547   44.3760   -5.3172 H   0  0  0  0  0  0  0  0  0  0  0  0
   24.2022   46.7899   -6.2106 H   0  0  0  0  0  0  0  0  0  0  0  0
   24.8131   46.5868   -4.6105 H   0  0  0  0  0  0  0  0  0  0  0  0
   21.8249   47.0231   -4.9108 H   0  0  0  0  0  0  0  0  0  0  0  0
   22.8602   47.3019   -3.5454 H   0  0  0  0  0  0  0  0  0  0  0  0
   23.9690   49.1973   -4.7273 H   0  0  0  0  0  0  0  0  0  0  0  0
   22.2915   49.4473   -4.3715 H   0  0  0  0  0  0  0  0  0  0  0  0
   22.8493   50.2772   -6.6260 H   0  0  0  0  0  0  0  0  0  0  0  0
   23.4642   48.7321   -7.0999 H   0  0  0  0  0  0  0  0  0  0  0  0
   21.1973   47.7335   -6.9493 H   0  0  0  0  0  0  0  0  0  0  0  0
   21.2861   49.0352   -8.0868 H   0  0  0  0  0  0  0  0  0  0  0  0
   20.1750   49.3762   -5.2590 H   0  0  0  0  0  0  0  0  0  0  0  0
   20.2536   50.6164   -6.4729 H   0  0  0  0  0  0  0  0  0  0  0  0
   18.7292   49.3149   -7.9375 H   0  0  0  0  0  0  0  0  0  0  0  0
   17.9863   49.7385   -6.4399 H   0  0  0  0  0  0  0  0  0  0  0  0
   17.8351   46.2818   -9.5383 H   0  0  0  0  0  0  0  0  0  0  0  0
   19.0092   47.5240   -9.2328 H   0  0  0  0  0  0  0  0  0  0  0  0
   17.2795   47.8645   -9.0303 H   0  0  0  0  0  0  0  0  0  0  0  0
   16.6464   43.6411   -7.3081 H   0  0  0  0  0  0  0  0  0  0  0  0
   16.6597   44.6722   -8.7238 H   0  0  0  0  0  0  0  0  0  0  0  0
   15.8814   45.2203   -7.2402 H   0  0  0  0  0  0  0  0  0  0  0  0
   19.1035   43.2414   -6.0246 H   0  0  0  0  0  0  0  0  0  0  0  0
   21.6909   43.0413   -5.0844 H   0  0  0  0  0  0  0  0  0  0  0  0
   22.8506   42.4006   -6.2039 H   0  0  0  0  0  0  0  0  0  0  0  0
   19.5977   40.9498   -5.2468 H   0  0  0  0  0  0  0  0  0  0  0  0
   21.1966   39.1939   -7.5786 H   0  0  0  0  0  0  0  0  0  0  0  0
   22.4598   40.3463   -7.2621 H   0  0  0  0  0  0  0  0  0  0  0  0
   22.4915   40.2786   -9.4964 H   0  0  0  0  0  0  0  0  0  0  0  0
   21.5433   37.9847  -10.0365 H   0  0  0  0  0  0  0  0  0  0  0  0
   19.7958   37.9529  -10.6043 H   0  0  0  0  0  0  0  0  0  0  0  0
   20.3097   39.7534  -12.2560 H   0  0  0  0  0  0  0  0  0  0  0  0
   22.0591   39.7595  -11.6907 H   0  0  0  0  0  0  0  0  0  0  0  0
   18.3000   38.9129   -8.9166 H   0  0  0  0  0  0  0  0  0  0  0  0
   15.8007   42.3762   -9.6301 H   0  0  0  0  0  0  0  0  0  0  0  0
   17.7860   43.4538  -10.6837 H   0  0  0  0  0  0  0  0  0  0  0  0
   14.1204   40.8093   -9.7704 H   0  0  0  0  0  0  0  0  0  0  0  0
   13.5996   39.2974   -9.0603 H   0  0  0  0  0  0  0  0  0  0  0  0
   14.7217   39.2876  -10.4143 H   0  0  0  0  0  0  0  0  0  0  0  0
   16.7391   38.3352   -7.3449 H   0  0  0  0  0  0  0  0  0  0  0  0
   16.2301   37.7692   -8.9409 H   0  0  0  0  0  0  0  0  0  0  0  0
   15.0656   37.9275   -7.6402 H   0  0  0  0  0  0  0  0  0  0  0  0
   16.0608   40.6714   -6.5261 H   0  0  0  0  0  0  0  0  0  0  0  0
   14.4087   40.1465   -6.7352 H   0  0  0  0  0  0  0  0  0  0  0  0
   14.9431   41.6489   -7.4652 H   0  0  0  0  0  0  0  0  0  0  0  0
  1  2  1  0  0  0  0
  1 43  1  0  0  0  0
  1 44  1  0  0  0  0
  1 45  1  0  0  0  0
  2 39  1  1  0  0  0
  2 21  1  0  0  0  0
  2  3  1  0  0  0  0
  3  4  1  0  0  0  0
  3 46  1  0  0  0  0
  3 47  1  0  0  0  0
  4  5  1  0  0  0  0
  4 48  1  0  0  0  0
  4 49  1  0  0  0  0
  5  6  1  0  0  0  0
  5 50  1  0  0  0  0
  5 51  1  0  0  0  0
  6  7  1  0  0  0  0
  6 52  1  0  0  0  0
  6 53  1  0  0  0  0
  7  8  1  0  0  0  0
  7 54  1  0  0  0  0
  7 55  1  0  0  0  0
  8  9  1  0  0  0  0
  8 56  1  0  0  0  0
  8 57  1  0  0  0  0
  9 10  1  0  0  0  0
  9 58  1  0  0  0  0
  9 59  1  0  0  0  0
 10 11  1  0  0  0  0
 10 60  1  0  0  0  0
 10 61  1  0  0  0  0
 11 12  2  0  0  0  0
 11 13  1  0  0  0  0
 13 14  1  0  0  0  0
 13 15  1  0  0  0  0
 14 62  1  0  0  0  0
 14 63  1  0  0  0  0
 14 64  1  0  0  0  0
 15 40  1  1  0  0  0
 15 16  1  0  0  0  0
 15 17  1  0  0  0  0
 16 65  1  0  0  0  0
 16 66  1  0  0  0  0
 16 67  1  0  0  0  0
 17 18  2  0  0  0  0
 17 19  1  0  0  0  0
 19 20  1  0  0  0  0
 19 68  1  0  0  0  0
 20 41  1  6  0  0  0
 20 21  1  0  0  0  0
 20 22  1  0  0  0  0
 21 69  1  0  0  0  0
 21 70  1  0  0  0  0
 22 42  1  6  0  0  0
 22 23  1  0  0  0  0
 22 24  1  0  0  0  0
 23 71  1  0  0  0  0
 24 25  1  0  0  0  0
 24 72  1  0  0  0  0
 24 73  1  0  0  0  0
 25 26  1  0  0  0  0
 25 74  1  0  0  0  0
 26 28  1  0  0  0  0
 26 27  1  0  0  0  0
 26 29  1  0  0  0  0
 27 28  1  0  0  0  0
 27 75  1  0  0  0  0
 27 76  1  0  0  0  0
 28 77  1  0  0  0  0
 28 78  1  0  0  0  0
 29 34  1  0  0  0  0
 29 30  2  0  0  0  0
 30 31  1  0  0  0  0
 30 79  1  0  0  0  0
 31 32  2  0  0  0  0
 31 35  1  0  0  0  0
 32 33  1  0  0  0  0
 32 80  1  0  0  0  0
 33 34  2  0  0  0  0
 33 81  1  0  0  0  0
 35 36  1  0  0  0  0
 35 37  1  0  0  0  0
 35 38  1  0  0  0  0
 36 82  1  0  0  0  0
 36 83  1  0  0  0  0
 36 84  1  0  0  0  0
 37 85  1  0  0  0  0
 37 86  1  0  0  0  0
 37 87  1  0  0  0  0
 38 88  1  0  0  0  0
 38 89  1  0  0  0  0
 38 90  1  0  0  0  0
M  END
>  <s_m_source_file>
BACE_23.smi

>  <i_m_source_file_index>
1

>  <i_lp_mmshare_version>
42013

>  <i_f3d_flags>
0

>  <s_epik_input>
W0NIM11bQ0BASF0xW0NIMl1bQ0gyXVtDSDJdW0NIMl1bQ0gyXVtDSDJdW0NIMl1bQ0gyXUMoPU8pTihbQ0gzXSlbQ0BASF0oW0NIM10pQyg9TylbTkhdW0NAQEhdKFtDSDJdMSlbQ0BIXShbT0hdKVtDSDJdW05IXUMyKFtDSDJdW0NIMl0yKWMzW2NIXWMoW2NIXVtjSF1uMylDKFtDSDNdKShbQ0gzXSlbQ0gzXQ==

>  <s_epik_cmdline>
J2VwaWtfcHl0aG9uJywgJy1waCcsICc3LjAnLCAnLXRuJywgJzgnLCAnLW1hJywgJzIwMCcsICctaW1hZScsICc8aW5maWxlLm1hZT4nLCAnLW9tYWUnLCAnPG91dGZpbGUubWFlPic=

>  <r_epik_Ionization_Penalty>
0.2016

>  <r_epik_Ionization_Penalty_Charging>
0.0000

>  <r_epik_Ionization_Penalty_Neutral>
0.2016

>  <r_epik_State_Penalty>
0.0816

>  <r_epik_Charging_Adjusted_Penalty>
0.0816439

>  <i_epik_Tot_Q>
0

>  <i_epik_Tot_abs_Q>
0

>  <s_lp_Force_Field>
OPLS_2005

>  <r_lp_Energy>
51.0036

>  <b_lp_Chiralities_Consistent>
1

>  <s_lp_Variant>
BACE_23.smi:1-1

>  <chiral flag>
1

>  <version>
0

>  <s_i_glide_gridfile>
second_dock_grid_2

>  <i_i_glide_lignum>
36

>  <i_i_glide_rotatable_bonds>
7

>  <r_i_docking_score>
-3.34202

>  <r_i_glide_ligand_efficiency>
-0.0879478

>  <r_i_glide_ligand_efficiency_sa>
-0.295678

>  <r_i_glide_ligand_efficiency_ln>
-0.720637

>  <r_glide_XP_GScore>
-3.42362

>  <r_i_glide_gscore>
-3.42362

>  <r_i_glide_evdw>
-38.6427

>  <r_i_glide_ecoul>
-10.1007

>  <r_i_glide_energy>
-48.7433

>  <r_i_glide_einternal>
4.9492

>  <r_i_glide_emodel>
-65.6824

>  <r_glide_XP_HBond>
-1.471

>  <i_i_glide_confnum>
1

>  <i_i_glide_posenum>
12

>  <r_i_glide_eff_state_penalty>
0.0816

>  <i_glide_XP_PoseRank>
1

$$$$
