BACE_44.smi:1
 OpenBabel09291822493D
Structure written by MMmdl.
 83 85  0  0  1  0  0  0  0  0999 V2000
   20.5697   39.9149  -10.1768 C   0  0  0  0  0  0  0  0  0  0  0  0
   20.2947   39.2514   -8.8178 C   0  0  0  0  0  0  0  0  0  0  0  0
   21.3119   38.1504   -8.5129 C   0  0  0  0  0  0  0  0  0  0  0  0
   18.8528   38.7614   -8.7275 C   0  0  0  0  0  0  0  0  0  0  0  0
   18.3414   37.8139   -9.6399 C   0  0  0  0  0  0  0  0  0  0  0  0
   16.9673   37.5002   -9.6343 C   0  0  0  0  0  0  0  0  0  0  0  0
   16.0884   38.1695   -8.7627 C   0  0  0  0  0  0  0  0  0  0  0  0
   16.5923   39.1080   -7.8415 C   0  0  0  0  0  0  0  0  0  0  0  0
   15.6272   39.9361   -6.9996 C   0  0  0  0  0  0  0  0  0  0  0  0
   16.0589   41.3495   -6.8400 N   0  3  0  0  0  0  0  0  0  0  0  0
   16.4414   42.1049   -8.0607 C   0  0  0  0  0  0  0  0  0  0  0  0
   17.5656   43.1474   -7.7918 C   0  0  1  0  0  0  0  0  0  0  0  0
   18.6856   42.4838   -7.2402 O   0  0  0  0  0  0  0  0  0  0  0  0
   18.1315   43.8727   -9.0520 C   0  0  2  0  0  0  0  0  0  0  0  0
   19.0383   45.0712   -8.6627 C   0  0  0  0  0  0  0  0  0  0  0  0
   20.0449   45.5619   -9.7370 C   0  0  2  0  0  0  0  0  0  0  0  0
   21.0981   46.4887   -9.1045 C   0  0  0  0  0  0  0  0  0  0  0  0
   19.4251   46.2124  -10.9965 C   0  0  0  0  0  0  0  0  0  0  0  0
   18.4837   47.4011  -10.7265 C   0  0  0  0  0  0  0  0  0  0  0  0
   17.9321   48.0323  -12.0177 C   0  0  0  0  0  0  0  0  0  0  0  0
   16.5942   48.7561  -11.7777 C   0  0  0  0  0  0  0  0  0  0  0  0
   15.8159   49.0937  -13.0622 C   0  0  0  0  0  0  0  0  0  0  0  0
   15.1584   47.8860  -13.7630 C   0  0  0  0  0  0  0  0  0  0  0  0
   13.9894   47.3524  -13.0561 N   0  0  0  0  0  0  0  0  0  0  0  0
   12.6871   47.9496  -13.3393 C   0  0  0  0  0  0  0  0  0  0  0  0
   14.0351   46.0808  -12.4400 C   0  0  0  0  0  0  0  0  0  0  0  0
   15.2547   45.5038  -12.0303 C   0  0  0  0  0  0  0  0  0  0  0  0
   15.2492   44.2310  -11.4333 C   0  0  0  0  0  0  0  0  0  0  0  0
   14.0324   43.5466  -11.2848 C   0  0  0  0  0  0  0  0  0  0  0  0
   12.8620   44.1983  -11.7012 C   0  0  0  0  0  0  0  0  0  0  0  0
   11.5204   43.5165  -11.5706 C   0  0  0  0  0  0  0  0  0  0  0  0
   12.8600   45.4421  -12.2309 N   0  0  0  0  0  0  0  0  0  0  0  0
   16.5095   43.6282  -10.9258 C   0  0  0  0  0  0  0  0  0  0  0  0
   16.9148   42.5471  -11.3474 O   0  0  0  0  0  0  0  0  0  0  0  0
   17.0526   44.3249   -9.9191 N   0  0  0  0  0  0  0  0  0  0  0  0
   17.9854   39.3320   -7.7751 C   0  0  0  0  0  0  0  0  0  0  0  0
   17.2032   43.8832   -7.0712 H   0  0  0  0  0  0  0  0  0  0  0  0
   18.7422   43.1583   -9.6105 H   0  0  0  0  0  0  0  0  0  0  0  0
   20.5909   44.6825  -10.0818 H   0  0  0  0  0  0  0  0  0  0  0  0
   19.8835   40.7446  -10.3549 H   0  0  0  0  0  0  0  0  0  0  0  0
   20.4566   39.2091  -11.0000 H   0  0  0  0  0  0  0  0  0  0  0  0
   21.5847   40.3123  -10.2192 H   0  0  0  0  0  0  0  0  0  0  0  0
   20.4299   40.0230   -8.0579 H   0  0  0  0  0  0  0  0  0  0  0  0
   21.1451   37.7520   -7.5153 H   0  0  0  0  0  0  0  0  0  0  0  0
   22.3316   38.5354   -8.5471 H   0  0  0  0  0  0  0  0  0  0  0  0
   21.2425   37.3422   -9.2404 H   0  0  0  0  0  0  0  0  0  0  0  0
   18.9898   37.3533  -10.3702 H   0  0  0  0  0  0  0  0  0  0  0  0
   16.5719   36.7816  -10.3355 H   0  0  0  0  0  0  0  0  0  0  0  0
   15.0269   37.9723   -8.8118 H   0  0  0  0  0  0  0  0  0  0  0  0
   14.6376   39.9283   -7.4596 H   0  0  0  0  0  0  0  0  0  0  0  0
   15.5204   39.4737   -6.0178 H   0  0  0  0  0  0  0  0  0  0  0  0
   15.3471   41.8629   -6.3243 H   0  0  0  0  0  0  0  0  0  0  0  0
   16.7641   41.4428   -8.8618 H   0  0  0  0  0  0  0  0  0  0  0  0
   15.5380   42.5959   -8.4211 H   0  0  0  0  0  0  0  0  0  0  0  0
   18.5049   42.2249   -6.3418 H   0  0  0  0  0  0  0  0  0  0  0  0
   18.4334   45.8992   -8.2919 H   0  0  0  0  0  0  0  0  0  0  0  0
   19.6371   44.7692   -7.8028 H   0  0  0  0  0  0  0  0  0  0  0  0
   20.6445   47.3795   -8.6688 H   0  0  0  0  0  0  0  0  0  0  0  0
   21.8343   46.8159   -9.8393 H   0  0  0  0  0  0  0  0  0  0  0  0
   21.6410   45.9760   -8.3095 H   0  0  0  0  0  0  0  0  0  0  0  0
   20.2296   46.5417  -11.6573 H   0  0  0  0  0  0  0  0  0  0  0  0
   18.8885   45.4523  -11.5647 H   0  0  0  0  0  0  0  0  0  0  0  0
   17.6527   47.0515  -10.1160 H   0  0  0  0  0  0  0  0  0  0  0  0
   18.9883   48.1681  -10.1394 H   0  0  0  0  0  0  0  0  0  0  0  0
   18.6641   48.7237  -12.4366 H   0  0  0  0  0  0  0  0  0  0  0  0
   17.8085   47.2597  -12.7749 H   0  0  0  0  0  0  0  0  0  0  0  0
   15.9600   48.1564  -11.1256 H   0  0  0  0  0  0  0  0  0  0  0  0
   16.7959   49.6771  -11.2309 H   0  0  0  0  0  0  0  0  0  0  0  0
   15.0502   49.8368  -12.8393 H   0  0  0  0  0  0  0  0  0  0  0  0
   16.4980   49.5797  -13.7607 H   0  0  0  0  0  0  0  0  0  0  0  0
   14.8042   48.2290  -14.7358 H   0  0  0  0  0  0  0  0  0  0  0  0
   15.8897   47.1115  -13.9907 H   0  0  0  0  0  0  0  0  0  0  0  0
   12.0592   47.9634  -12.4471 H   0  0  0  0  0  0  0  0  0  0  0  0
   12.1726   47.3813  -14.1158 H   0  0  0  0  0  0  0  0  0  0  0  0
   12.7922   48.9780  -13.6882 H   0  0  0  0  0  0  0  0  0  0  0  0
   16.1922   46.0122  -12.1537 H   0  0  0  0  0  0  0  0  0  0  0  0
   13.9948   42.5613  -10.8399 H   0  0  0  0  0  0  0  0  0  0  0  0
   11.6129   42.5613  -11.0517 H   0  0  0  0  0  0  0  0  0  0  0  0
   11.1093   43.3291  -12.5631 H   0  0  0  0  0  0  0  0  0  0  0  0
   10.8274   44.1426  -11.0101 H   0  0  0  0  0  0  0  0  0  0  0  0
   16.6170   45.2037   -9.6832 H   0  0  0  0  0  0  0  0  0  0  0  0
   18.3846   40.0265   -7.0544 H   0  0  0  0  0  0  0  0  0  0  0  0
   16.8731   41.3157   -6.2300 H   0  0  0  0  0  0  0  0  0  0  0  0
  1  2  1  0  0  0  0
  1 40  1  0  0  0  0
  1 41  1  0  0  0  0
  1 42  1  0  0  0  0
  2  3  1  0  0  0  0
  2  4  1  0  0  0  0
  2 43  1  0  0  0  0
  3 44  1  0  0  0  0
  3 45  1  0  0  0  0
  3 46  1  0  0  0  0
  4 36  1  0  0  0  0
  4  5  2  0  0  0  0
  5  6  1  0  0  0  0
  5 47  1  0  0  0  0
  6  7  2  0  0  0  0
  6 48  1  0  0  0  0
  7  8  1  0  0  0  0
  7 49  1  0  0  0  0
  8  9  1  0  0  0  0
  8 36  2  0  0  0  0
  9 10  1  0  0  0  0
  9 50  1  0  0  0  0
  9 51  1  0  0  0  0
 10 11  1  0  0  0  0
 10 52  1  0  0  0  0
 10 83  1  0  0  0  0
 11 12  1  0  0  0  0
 11 53  1  0  0  0  0
 11 54  1  0  0  0  0
 12 37  1  1  0  0  0
 12 13  1  0  0  0  0
 12 14  1  0  0  0  0
 13 55  1  0  0  0  0
 14 38  1  6  0  0  0
 14 35  1  0  0  0  0
 14 15  1  0  0  0  0
 15 16  1  0  0  0  0
 15 56  1  0  0  0  0
 15 57  1  0  0  0  0
 16 39  1  6  0  0  0
 16 17  1  0  0  0  0
 16 18  1  0  0  0  0
 17 58  1  0  0  0  0
 17 59  1  0  0  0  0
 17 60  1  0  0  0  0
 18 19  1  0  0  0  0
 18 61  1  0  0  0  0
 18 62  1  0  0  0  0
 19 20  1  0  0  0  0
 19 63  1  0  0  0  0
 19 64  1  0  0  0  0
 20 21  1  0  0  0  0
 20 65  1  0  0  0  0
 20 66  1  0  0  0  0
 21 22  1  0  0  0  0
 21 67  1  0  0  0  0
 21 68  1  0  0  0  0
 22 23  1  0  0  0  0
 22 69  1  0  0  0  0
 22 70  1  0  0  0  0
 23 24  1  0  0  0  0
 23 71  1  0  0  0  0
 23 72  1  0  0  0  0
 24 25  1  0  0  0  0
 24 26  1  0  0  0  0
 25 73  1  0  0  0  0
 25 74  1  0  0  0  0
 25 75  1  0  0  0  0
 26 32  1  0  0  0  0
 26 27  2  0  0  0  0
 27 28  1  0  0  0  0
 27 76  1  0  0  0  0
 28 29  2  0  0  0  0
 28 33  1  0  0  0  0
 29 30  1  0  0  0  0
 29 77  1  0  0  0  0
 30 31  1  0  0  0  0
 30 32  2  0  0  0  0
 31 78  1  0  0  0  0
 31 79  1  0  0  0  0
 31 80  1  0  0  0  0
 33 34  2  0  0  0  0
 33 35  1  0  0  0  0
 35 81  1  0  0  0  0
 36 82  1  0  0  0  0
M  CHG  1  10   1
M  END
>  <s_m_source_file>
BACE_44.smi

>  <i_m_source_file_index>
1

>  <i_lp_mmshare_version>
42013

>  <i_f3d_flags>
0

>  <s_epik_input>
W0NIM11bQ0hdKFtDSDNdKWMxW2NIXVtjSF1bY0hdYyhbY0hdMSlbQ0gyXVtOSF1bQ0gyXVtDQEBIXShbT0hdKVtDQEBIXShbTkhdQyg9TyljKFtjSF1jMjMpW2NIXWMobjMpW0NIM10pW0NIMl1bQ0BIXShbQ0gzXSlbQ0gyXVtDSDJdW0NIMl1bQ0gyXVtDSDJdW0NIMl1OMltDSDNd

>  <s_epik_cmdline>
J2VwaWtfcHl0aG9uJywgJy1waCcsICc3LjAnLCAnLXRuJywgJzgnLCAnLW1hJywgJzIwMCcsICctaW1hZScsICc8aW5maWxlLm1hZT4nLCAnLW9tYWUnLCAnPG91dGZpbGUubWFlPic=

>  <r_lp_tautomer_probability>
1

>  <r_epik_Ionization_Penalty>
0.0422

>  <r_epik_Ionization_Penalty_Charging>
0.0173

>  <r_epik_Ionization_Penalty_Neutral>
0.0248

>  <r_epik_State_Penalty>
0.0348

>  <r_epik_Charging_Adjusted_Penalty>
0.0521435

>  <i_epik_Tot_Q>
1

>  <i_epik_Tot_abs_Q>
1

>  <s_lp_Force_Field>
OPLS_2005

>  <r_lp_Energy>
27.1733

>  <b_lp_Chiralities_Consistent>
1

>  <s_lp_Variant>
BACE_44.smi:1-1

>  <chiral flag>
1

>  <version>
0

>  <s_i_glide_gridfile>
second_dock_grid_2

>  <i_i_glide_lignum>
80

>  <i_i_glide_rotatable_bonds>
7

>  <r_i_docking_score>
-5.78544

>  <r_i_glide_ligand_efficiency>
-0.160707

>  <r_i_glide_ligand_efficiency_sa>
-0.530641

>  <r_i_glide_ligand_efficiency_ln>
-1.26223

>  <r_glide_XP_GScore>
-5.82024

>  <r_i_glide_gscore>
-5.82024

>  <r_i_glide_evdw>
-31.8713

>  <r_i_glide_ecoul>
-22.0871

>  <r_i_glide_energy>
-53.9583

>  <r_i_glide_einternal>
8.40252

>  <r_i_glide_emodel>
-61.0964

>  <r_glide_XP_HBond>
-0.737019

>  <i_i_glide_confnum>
1

>  <i_i_glide_posenum>
7

>  <r_i_glide_eff_state_penalty>
0.0348

>  <i_glide_XP_PoseRank>
1

$$$$
