BACE_129.smi:1
 OpenBabel09291822493D
Structure written by MMmdl.
 86 89  0  0  1  0  0  0  0  0999 V2000
   19.6624   42.4382   -2.0129 C   0  0  0  0  0  0  0  0  0  0  0  0
   21.0778   42.5245   -1.9318 O   0  0  0  0  0  0  0  0  0  0  0  0
   21.7675   41.6680   -2.8356 C   0  0  0  0  0  0  0  0  0  0  0  0
   21.7253   42.1523   -4.2707 C   0  0  0  0  0  0  0  0  0  0  0  0
   22.5802   43.1977   -4.6734 C   0  0  0  0  0  0  0  0  0  0  0  0
   22.5770   43.6554   -6.0025 C   0  0  0  0  0  0  0  0  0  0  0  0
   21.6749   43.0700   -6.9244 C   0  0  0  0  0  0  0  0  0  0  0  0
   20.8367   42.0017   -6.5425 C   0  0  0  0  0  0  0  0  0  0  0  0
   20.8634   41.5455   -5.2074 C   0  0  0  0  0  0  0  0  0  0  0  0
   19.9214   41.3890   -7.5600 C   0  0  0  0  0  0  0  0  0  0  0  0
   19.4030   42.0788   -8.4329 O   0  0  0  0  0  0  0  0  0  0  0  0
   19.7974   40.0543   -7.5034 N   0  0  0  0  0  0  0  0  0  0  0  0
   19.0308   39.2092   -8.4289 C   0  0  1  0  0  0  0  0  0  0  0  0
   19.9798   38.5938   -9.4868 C   0  0  0  0  0  0  0  0  0  0  0  0
   20.7257   39.6566  -10.2725 C   0  0  0  0  0  0  0  0  0  0  0  0
   22.0543   40.0065   -9.9355 C   0  0  0  0  0  0  0  0  0  0  0  0
   22.7018   41.0844  -10.5696 C   0  0  0  0  0  0  0  0  0  0  0  0
   22.0046   41.8010  -11.5746 C   0  0  0  0  0  0  0  0  0  0  0  0
   20.6957   41.4297  -11.9380 C   0  0  0  0  0  0  0  0  0  0  0  0
   20.0560   40.3614  -11.2895 C   0  0  0  0  0  0  0  0  0  0  0  0
   23.9959   41.3490  -10.1653 O   0  0  0  0  0  0  0  0  0  0  0  0
   24.7015   42.4725  -10.6933 C   0  0  0  0  0  0  0  0  0  0  0  0
   24.2678   43.7776  -10.0059 C   0  0  0  0  0  0  0  0  0  0  0  0
   24.4609   43.7389   -8.4822 C   0  0  0  0  0  0  0  0  0  0  0  0
   23.7724   44.9230   -7.7759 C   0  0  0  0  0  0  0  0  0  0  0  0
   23.4937   44.6561   -6.3694 N   0  0  0  0  0  0  0  0  0  0  0  0
   18.2917   38.1454   -7.5951 C   0  0  2  0  0  0  0  0  0  0  0  0
   17.7461   37.0971   -8.3802 O   0  0  0  0  0  0  0  0  0  0  0  0
   17.1984   38.7193   -6.6775 C   0  0  0  0  0  0  0  0  0  0  0  0
   15.8367   38.5572   -7.2400 N   0  3  0  0  0  0  0  0  0  0  0  0
   14.9677   39.7443   -7.1713 C   0  0  0  0  0  0  0  0  0  0  0  0
   15.3981   40.7412   -8.2144 C   0  0  0  0  0  0  0  0  0  0  0  0
   16.1431   41.9367   -8.0395 C   0  0  0  0  0  0  0  0  0  0  0  0
   16.3168   42.4042   -9.3111 C   0  0  0  0  0  0  0  0  0  0  0  0
   17.0256   43.5985   -9.8674 C   0  0  0  0  0  0  0  0  0  0  0  0
   16.1811   44.8855  -10.0154 C   0  0  0  0  0  0  0  0  0  0  0  0
   17.0584   45.9791  -10.6570 C   0  0  0  0  0  0  0  0  0  0  0  0
   14.9544   44.6392  -10.9175 C   0  0  0  0  0  0  0  0  0  0  0  0
   15.7250   45.3760   -8.6258 C   0  0  0  0  0  0  0  0  0  0  0  0
   15.7184   41.5721  -10.2010 O   0  0  0  0  0  0  0  0  0  0  0  0
   15.1532   40.5044   -9.4932 N   0  0  0  0  0  0  0  0  0  0  0  0
   18.2815   39.8099   -8.9492 H   0  0  0  0  0  0  0  0  0  0  0  0
   19.0501   37.7204   -6.9402 H   0  0  0  0  0  0  0  0  0  0  0  0
   19.2219   43.0891   -1.2584 H   0  0  0  0  0  0  0  0  0  0  0  0
   19.3158   41.4221   -1.8203 H   0  0  0  0  0  0  0  0  0  0  0  0
   19.2917   42.7562   -2.9870 H   0  0  0  0  0  0  0  0  0  0  0  0
   21.4032   40.6416   -2.7578 H   0  0  0  0  0  0  0  0  0  0  0  0
   22.8145   41.6468   -2.5381 H   0  0  0  0  0  0  0  0  0  0  0  0
   23.2563   43.6427   -3.9558 H   0  0  0  0  0  0  0  0  0  0  0  0
   21.6412   43.4027   -7.9506 H   0  0  0  0  0  0  0  0  0  0  0  0
   20.2140   40.7454   -4.8900 H   0  0  0  0  0  0  0  0  0  0  0  0
   20.3156   39.5821   -6.7790 H   0  0  0  0  0  0  0  0  0  0  0  0
   20.6966   37.9218   -9.0124 H   0  0  0  0  0  0  0  0  0  0  0  0
   19.4164   37.9848  -10.1944 H   0  0  0  0  0  0  0  0  0  0  0  0
   22.5734   39.4660   -9.1560 H   0  0  0  0  0  0  0  0  0  0  0  0
   22.4588   42.6281  -12.0933 H   0  0  0  0  0  0  0  0  0  0  0  0
   20.1654   41.9747  -12.7021 H   0  0  0  0  0  0  0  0  0  0  0  0
   19.0377   40.1041  -11.5478 H   0  0  0  0  0  0  0  0  0  0  0  0
   25.7624   42.3025  -10.5056 H   0  0  0  0  0  0  0  0  0  0  0  0
   24.6117   42.5499  -11.7770 H   0  0  0  0  0  0  0  0  0  0  0  0
   24.8276   44.6149  -10.4227 H   0  0  0  0  0  0  0  0  0  0  0  0
   23.2195   43.9690  -10.2325 H   0  0  0  0  0  0  0  0  0  0  0  0
   24.0588   42.7964   -8.1110 H   0  0  0  0  0  0  0  0  0  0  0  0
   25.5221   43.7162   -8.2315 H   0  0  0  0  0  0  0  0  0  0  0  0
   24.4046   45.8070   -7.8492 H   0  0  0  0  0  0  0  0  0  0  0  0
   22.8382   45.1861   -8.2737 H   0  0  0  0  0  0  0  0  0  0  0  0
   24.1971   44.9237   -5.6949 H   0  0  0  0  0  0  0  0  0  0  0  0
   17.3552   36.4665   -7.7836 H   0  0  0  0  0  0  0  0  0  0  0  0
   17.2596   38.1873   -5.7271 H   0  0  0  0  0  0  0  0  0  0  0  0
   17.3998   39.7567   -6.4395 H   0  0  0  0  0  0  0  0  0  0  0  0
   15.9208   38.2528   -8.1957 H   0  0  0  0  0  0  0  0  0  0  0  0
   13.9392   39.4310   -7.3508 H   0  0  0  0  0  0  0  0  0  0  0  0
   14.9950   40.1738   -6.1680 H   0  0  0  0  0  0  0  0  0  0  0  0
   16.5054   42.3726   -7.1188 H   0  0  0  0  0  0  0  0  0  0  0  0
   17.8827   43.8302   -9.2348 H   0  0  0  0  0  0  0  0  0  0  0  0
   17.4524   43.3250  -10.8338 H   0  0  0  0  0  0  0  0  0  0  0  0
   17.9399   46.1892  -10.0485 H   0  0  0  0  0  0  0  0  0  0  0  0
   16.5096   46.9141  -10.7696 H   0  0  0  0  0  0  0  0  0  0  0  0
   17.4064   45.6813  -11.6458 H   0  0  0  0  0  0  0  0  0  0  0  0
   14.2502   43.9392  -10.4642 H   0  0  0  0  0  0  0  0  0  0  0  0
   15.2502   44.2285  -11.8821 H   0  0  0  0  0  0  0  0  0  0  0  0
   14.4171   45.5659  -11.1119 H   0  0  0  0  0  0  0  0  0  0  0  0
   15.0077   44.6914   -8.1680 H   0  0  0  0  0  0  0  0  0  0  0  0
   15.2596   46.3569   -8.6850 H   0  0  0  0  0  0  0  0  0  0  0  0
   16.5696   45.4632   -7.9384 H   0  0  0  0  0  0  0  0  0  0  0  0
   15.4254   37.8025   -6.6897 H   0  0  0  0  0  0  0  0  0  0  0  0
  1  2  1  0  0  0  0
  1 44  1  0  0  0  0
  1 45  1  0  0  0  0
  1 46  1  0  0  0  0
  2  3  1  0  0  0  0
  3  4  1  0  0  0  0
  3 47  1  0  0  0  0
  3 48  1  0  0  0  0
  4  9  1  0  0  0  0
  4  5  2  0  0  0  0
  5  6  1  0  0  0  0
  5 49  1  0  0  0  0
  6 26  1  0  0  0  0
  6  7  2  0  0  0  0
  7  8  1  0  0  0  0
  7 50  1  0  0  0  0
  8  9  2  0  0  0  0
  8 10  1  0  0  0  0
  9 51  1  0  0  0  0
 10 11  2  0  0  0  0
 10 12  1  0  0  0  0
 12 13  1  0  0  0  0
 12 52  1  0  0  0  0
 13 42  1  6  0  0  0
 13 14  1  0  0  0  0
 13 27  1  0  0  0  0
 14 15  1  0  0  0  0
 14 53  1  0  0  0  0
 14 54  1  0  0  0  0
 15 20  1  0  0  0  0
 15 16  2  0  0  0  0
 16 17  1  0  0  0  0
 16 55  1  0  0  0  0
 17 18  2  0  0  0  0
 17 21  1  0  0  0  0
 18 19  1  0  0  0  0
 18 56  1  0  0  0  0
 19 20  2  0  0  0  0
 19 57  1  0  0  0  0
 20 58  1  0  0  0  0
 21 22  1  0  0  0  0
 22 23  1  0  0  0  0
 22 59  1  0  0  0  0
 22 60  1  0  0  0  0
 23 24  1  0  0  0  0
 23 61  1  0  0  0  0
 23 62  1  0  0  0  0
 24 25  1  0  0  0  0
 24 63  1  0  0  0  0
 24 64  1  0  0  0  0
 25 26  1  0  0  0  0
 25 65  1  0  0  0  0
 25 66  1  0  0  0  0
 26 67  1  0  0  0  0
 27 43  1  1  0  0  0
 27 28  1  0  0  0  0
 27 29  1  0  0  0  0
 28 68  1  0  0  0  0
 29 30  1  0  0  0  0
 29 69  1  0  0  0  0
 29 70  1  0  0  0  0
 30 31  1  0  0  0  0
 30 71  1  0  0  0  0
 30 86  1  0  0  0  0
 31 32  1  0  0  0  0
 31 72  1  0  0  0  0
 31 73  1  0  0  0  0
 32 41  2  0  0  0  0
 32 33  1  0  0  0  0
 33 34  2  0  0  0  0
 33 74  1  0  0  0  0
 34 35  1  0  0  0  0
 34 40  1  0  0  0  0
 35 36  1  0  0  0  0
 35 75  1  0  0  0  0
 35 76  1  0  0  0  0
 36 37  1  0  0  0  0
 36 38  1  0  0  0  0
 36 39  1  0  0  0  0
 37 77  1  0  0  0  0
 37 78  1  0  0  0  0
 37 79  1  0  0  0  0
 38 80  1  0  0  0  0
 38 81  1  0  0  0  0
 38 82  1  0  0  0  0
 39 83  1  0  0  0  0
 39 84  1  0  0  0  0
 39 85  1  0  0  0  0
 40 41  1  0  0  0  0
M  CHG  1  30   1
M  END
>  <s_m_source_file>
BACE_129.smi

>  <i_m_source_file_index>
1

>  <i_lp_mmshare_version>
42013

>  <i_f3d_flags>
0

>  <s_epik_input>
W0NIM11DKFtDSDNdKShbQ0gzXSlbQ0gyXWMob24xKVtjSF1jMVtDSDJdW05IXVtDSDJdW0NAQEhdKFtPSF0pW0NAQEhdKFtOSF1DKD1PKWMoW2NIXTIpW2NIXWMoW2NIXWMyMylbQ0gyXU9bQ0gzXSlbQ0gyXWM0W2NIXWMoW2NIXVtjSF1bY0hdNClPW0NIMl1bQ0gyXVtDSDJdW0NIMl1bTkhdMw==

>  <s_epik_cmdline>
J2VwaWtfcHl0aG9uJywgJy1waCcsICc3LjAnLCAnLXRuJywgJzgnLCAnLW1hJywgJzIwMCcsICctaW1hZScsICc8aW5maWxlLm1hZT4nLCAnLW9tYWUnLCAnPG91dGZpbGUubWFlPic=

>  <r_lp_tautomer_probability>
1

>  <r_epik_Ionization_Penalty>
0.6357

>  <r_epik_Ionization_Penalty_Charging>
0.6354

>  <r_epik_Ionization_Penalty_Neutral>
0.0003

>  <r_epik_State_Penalty>
0.6526

>  <r_epik_Charging_Adjusted_Penalty>
1.28793

>  <i_epik_Tot_Q>
1

>  <i_epik_Tot_abs_Q>
1

>  <s_lp_Force_Field>
OPLS_2005

>  <r_lp_Energy>
34.7321

>  <b_lp_Chiralities_Consistent>
1

>  <s_lp_Variant>
BACE_129.smi:1-2

>  <chiral flag>
1

>  <version>
0

>  <s_i_glide_gridfile>
second_dock_grid_2

>  <i_i_glide_lignum>
265

>  <i_i_glide_rotatable_bonds>
10

>  <r_i_docking_score>
-5.94766

>  <r_i_glide_ligand_efficiency>
-0.145065

>  <r_i_glide_ligand_efficiency_sa>
-0.500215

>  <r_i_glide_ligand_efficiency_ln>
-1.26182

>  <r_glide_XP_GScore>
-6.60026

>  <r_i_glide_gscore>
-6.60026

>  <r_i_glide_evdw>
-45.3412

>  <r_i_glide_ecoul>
-13.5073

>  <r_i_glide_energy>
-58.8485

>  <r_i_glide_einternal>
13.0491

>  <r_i_glide_emodel>
-77.8632

>  <r_glide_XP_HBond>
-0.884813

>  <i_i_glide_confnum>
1

>  <i_i_glide_posenum>
1

>  <r_i_glide_eff_state_penalty>
0.6526

>  <i_glide_XP_PoseRank>
1

$$$$
