BACE_14.smi:1
 OpenBabel09291822493D
Structure written by MMmdl.
 85 89  0  0  1  0  0  0  0  0999 V2000
   28.0462   46.1696   -8.3625 C   0  0  0  0  0  0  0  0  0  0  0  0
   28.0611   44.6872   -7.9643 C   0  0  0  0  0  0  0  0  0  0  0  0
   27.2633   44.4390   -6.6731 C   0  0  0  0  0  0  0  0  0  0  0  0
   27.5760   43.8092   -9.1106 C   0  0  0  0  0  0  0  0  0  0  0  0
   26.2213   43.8235   -9.5017 C   0  0  0  0  0  0  0  0  0  0  0  0
   25.7618   43.0049  -10.5541 C   0  0  0  0  0  0  0  0  0  0  0  0
   26.6798   42.1657  -11.2189 C   0  0  0  0  0  0  0  0  0  0  0  0
   28.0351   42.1500  -10.8425 C   0  0  0  0  0  0  0  0  0  0  0  0
   28.4847   42.9702   -9.7932 C   0  0  0  0  0  0  0  0  0  0  0  0
   24.3105   42.9995  -10.9411 C   0  0  0  0  0  0  0  0  0  0  0  0
   23.5478   44.2919  -11.1339 C   0  0  0  0  0  0  0  0  0  0  0  0
   23.9233   43.4458  -12.3306 C   0  0  0  0  0  0  0  0  0  0  0  0
   23.6007   41.8506  -10.3888 N   0  0  0  0  0  0  0  0  0  0  0  0
   23.3334   41.9388   -8.9517 C   0  0  0  0  0  0  0  0  0  0  0  0
   22.5632   40.6930   -8.4633 C   0  0  1  0  0  0  0  0  0  0  0  0
   23.5359   39.7504   -8.0402 O   0  0  0  0  0  0  0  0  0  0  0  0
   21.5988   40.9466   -7.2725 C   0  0  2  0  0  0  0  0  0  0  0  0
   20.8333   39.6787   -6.8213 C   0  0  0  0  0  0  0  0  0  0  0  0
   19.7933   39.1743   -7.8118 C   0  0  0  0  0  0  0  0  0  0  0  0
   18.4307   39.4964   -7.6437 C   0  0  0  0  0  0  0  0  0  0  0  0
   17.4501   39.0311   -8.5391 C   0  0  0  0  0  0  0  0  0  0  0  0
   17.8553   38.2378   -9.6401 C   0  0  0  0  0  0  0  0  0  0  0  0
   19.2139   37.9314   -9.8283 C   0  0  0  0  0  0  0  0  0  0  0  0
   20.1786   38.3747   -8.9076 C   0  0  0  0  0  0  0  0  0  0  0  0
   16.1437   39.3877   -8.2823 O   0  0  0  0  0  0  0  0  0  0  0  0
   15.2162   39.4521   -9.3604 C   0  0  0  0  0  0  0  0  0  0  0  0
   15.5887   40.5885  -10.3332 C   0  0  0  0  0  0  0  0  0  0  0  0
   15.6493   41.9655   -9.6481 C   0  0  0  0  0  0  0  0  0  0  0  0
   16.4118   43.0043  -10.4866 C   0  0  0  0  0  0  0  0  0  0  0  0
   16.4962   44.3045   -9.8342 N   0  0  0  0  0  0  0  0  0  0  0  0
   17.4186   44.5806   -8.8089 C   0  0  0  0  0  0  0  0  0  0  0  0
   17.4089   45.8756   -8.2511 C   0  0  0  0  0  0  0  0  0  0  0  0
   18.2859   46.2176   -7.1968 C   0  0  0  0  0  0  0  0  0  0  0  0
   19.1802   45.2426   -6.7022 C   0  0  0  0  0  0  0  0  0  0  0  0
   19.2282   43.9509   -7.2683 C   0  0  0  0  0  0  0  0  0  0  0  0
   18.3310   43.6222   -8.3126 C   0  0  0  0  0  0  0  0  0  0  0  0
   20.1914   42.9343   -6.7205 C   0  0  0  0  0  0  0  0  0  0  0  0
   20.5716   43.0050   -5.5497 O   0  0  0  0  0  0  0  0  0  0  0  0
   20.6466   42.0153   -7.5892 N   0  0  0  0  0  0  0  0  0  0  0  0
   18.2264   47.5540   -6.5495 C   0  0  0  0  0  0  0  0  0  0  0  0
   17.8562   48.7450   -7.4270 C   0  0  0  0  0  0  0  0  0  0  0  0
   18.4563   47.7403   -5.3567 O   0  0  0  0  0  0  0  0  0  0  0  0
   21.9992   40.2759   -9.2979 H   0  0  0  0  0  0  0  0  0  0  0  0
   22.2233   41.2669   -6.4336 H   0  0  0  0  0  0  0  0  0  0  0  0
   28.4276   46.7973   -7.5568 H   0  0  0  0  0  0  0  0  0  0  0  0
   27.0381   46.5088   -8.5999 H   0  0  0  0  0  0  0  0  0  0  0  0
   28.6695   46.3417   -9.2403 H   0  0  0  0  0  0  0  0  0  0  0  0
   29.0965   44.4179   -7.7568 H   0  0  0  0  0  0  0  0  0  0  0  0
   27.6895   44.9961   -5.8389 H   0  0  0  0  0  0  0  0  0  0  0  0
   27.2696   43.3831   -6.4038 H   0  0  0  0  0  0  0  0  0  0  0  0
   26.2227   44.7470   -6.7723 H   0  0  0  0  0  0  0  0  0  0  0  0
   25.5211   44.4637   -8.9870 H   0  0  0  0  0  0  0  0  0  0  0  0
   26.3423   41.5304  -12.0253 H   0  0  0  0  0  0  0  0  0  0  0  0
   28.7297   41.4997  -11.3574 H   0  0  0  0  0  0  0  0  0  0  0  0
   29.5244   42.9468   -9.5039 H   0  0  0  0  0  0  0  0  0  0  0  0
   22.4921   44.3159  -10.8677 H   0  0  0  0  0  0  0  0  0  0  0  0
   24.0815   45.2319  -11.0040 H   0  0  0  0  0  0  0  0  0  0  0  0
   24.7116   43.8213  -12.9799 H   0  0  0  0  0  0  0  0  0  0  0  0
   23.1159   42.9191  -12.8360 H   0  0  0  0  0  0  0  0  0  0  0  0
   24.1533   41.0166  -10.5721 H   0  0  0  0  0  0  0  0  0  0  0  0
   22.7474   42.8387   -8.7643 H   0  0  0  0  0  0  0  0  0  0  0  0
   24.2558   42.0640   -8.3836 H   0  0  0  0  0  0  0  0  0  0  0  0
   23.9951   39.4022   -8.7968 H   0  0  0  0  0  0  0  0  0  0  0  0
   21.5307   38.8668   -6.6031 H   0  0  0  0  0  0  0  0  0  0  0  0
   20.3318   39.8842   -5.8740 H   0  0  0  0  0  0  0  0  0  0  0  0
   18.1232   40.1287   -6.8276 H   0  0  0  0  0  0  0  0  0  0  0  0
   17.1425   37.8613  -10.3554 H   0  0  0  0  0  0  0  0  0  0  0  0
   19.5155   37.3533  -10.6859 H   0  0  0  0  0  0  0  0  0  0  0  0
   21.2155   38.1066   -9.0522 H   0  0  0  0  0  0  0  0  0  0  0  0
   15.1269   38.4944   -9.8736 H   0  0  0  0  0  0  0  0  0  0  0  0
   14.2319   39.6481   -8.9350 H   0  0  0  0  0  0  0  0  0  0  0  0
   16.5509   40.3693  -10.7956 H   0  0  0  0  0  0  0  0  0  0  0  0
   14.8667   40.6180  -11.1480 H   0  0  0  0  0  0  0  0  0  0  0  0
   14.6355   42.3125   -9.4400 H   0  0  0  0  0  0  0  0  0  0  0  0
   16.1344   41.8680   -8.6763 H   0  0  0  0  0  0  0  0  0  0  0  0
   17.4140   42.6445  -10.7231 H   0  0  0  0  0  0  0  0  0  0  0  0
   15.9064   43.1378  -11.4426 H   0  0  0  0  0  0  0  0  0  0  0  0
   15.8535   45.0258  -10.1281 H   0  0  0  0  0  0  0  0  0  0  0  0
   16.6996   46.5966   -8.6260 H   0  0  0  0  0  0  0  0  0  0  0  0
   19.8425   45.4909   -5.8816 H   0  0  0  0  0  0  0  0  0  0  0  0
   18.3461   42.6239   -8.7223 H   0  0  0  0  0  0  0  0  0  0  0  0
   20.2800   42.0283   -8.5272 H   0  0  0  0  0  0  0  0  0  0  0  0
   16.8271   48.6725   -7.7722 H   0  0  0  0  0  0  0  0  0  0  0  0
   18.5085   48.7866   -8.2998 H   0  0  0  0  0  0  0  0  0  0  0  0
   17.9649   49.6738   -6.8645 H   0  0  0  0  0  0  0  0  0  0  0  0
  1  2  1  0  0  0  0
  1 45  1  0  0  0  0
  1 46  1  0  0  0  0
  1 47  1  0  0  0  0
  2  3  1  0  0  0  0
  2  4  1  0  0  0  0
  2 48  1  0  0  0  0
  3 49  1  0  0  0  0
  3 50  1  0  0  0  0
  3 51  1  0  0  0  0
  4  9  1  0  0  0  0
  4  5  2  0  0  0  0
  5  6  1  0  0  0  0
  5 52  1  0  0  0  0
  6  7  2  0  0  0  0
  6 10  1  0  0  0  0
  7  8  1  0  0  0  0
  7 53  1  0  0  0  0
  8  9  2  0  0  0  0
  8 54  1  0  0  0  0
  9 55  1  0  0  0  0
 10 12  1  0  0  0  0
 10 11  1  0  0  0  0
 10 13  1  0  0  0  0
 11 12  1  0  0  0  0
 11 56  1  0  0  0  0
 11 57  1  0  0  0  0
 12 58  1  0  0  0  0
 12 59  1  0  0  0  0
 13 14  1  0  0  0  0
 13 60  1  0  0  0  0
 14 15  1  0  0  0  0
 14 61  1  0  0  0  0
 14 62  1  0  0  0  0
 15 43  1  6  0  0  0
 15 16  1  0  0  0  0
 15 17  1  0  0  0  0
 16 63  1  0  0  0  0
 17 44  1  1  0  0  0
 17 39  1  0  0  0  0
 17 18  1  0  0  0  0
 18 19  1  0  0  0  0
 18 64  1  0  0  0  0
 18 65  1  0  0  0  0
 19 24  1  0  0  0  0
 19 20  2  0  0  0  0
 20 21  1  0  0  0  0
 20 66  1  0  0  0  0
 21 22  2  0  0  0  0
 21 25  1  0  0  0  0
 22 23  1  0  0  0  0
 22 67  1  0  0  0  0
 23 24  2  0  0  0  0
 23 68  1  0  0  0  0
 24 69  1  0  0  0  0
 25 26  1  0  0  0  0
 26 27  1  0  0  0  0
 26 70  1  0  0  0  0
 26 71  1  0  0  0  0
 27 28  1  0  0  0  0
 27 72  1  0  0  0  0
 27 73  1  0  0  0  0
 28 29  1  0  0  0  0
 28 74  1  0  0  0  0
 28 75  1  0  0  0  0
 29 30  1  0  0  0  0
 29 76  1  0  0  0  0
 29 77  1  0  0  0  0
 30 31  1  0  0  0  0
 30 78  1  0  0  0  0
 31 36  1  0  0  0  0
 31 32  2  0  0  0  0
 32 33  1  0  0  0  0
 32 79  1  0  0  0  0
 33 34  2  0  0  0  0
 33 40  1  0  0  0  0
 34 35  1  0  0  0  0
 34 80  1  0  0  0  0
 35 36  2  0  0  0  0
 35 37  1  0  0  0  0
 36 81  1  0  0  0  0
 37 38  2  0  0  0  0
 37 39  1  0  0  0  0
 39 82  1  0  0  0  0
 40 41  1  0  0  0  0
 40 42  2  0  0  0  0
 41 83  1  0  0  0  0
 41 84  1  0  0  0  0
 41 85  1  0  0  0  0
M  END
>  <s_m_source_file>
BACE_14.smi

>  <i_m_source_file_index>
1

>  <i_lp_mmshare_version>
42013

>  <i_f3d_flags>
0

>  <s_epik_input>
W0NIM11bQ0hdKFtDSDNdKWMxW2NIXWMoW2NIXVtjSF1bY0hdMSlDMihbQ0gyXVtDSDJdMilbTkhdW0NIMl1bQ0BASF0oW09IXSlbQ0BIXShbQ0gyXTMpW05IXUMoPU8pYyhbY0hdNClbY0hdYyhDKD1PKVtDSDNdKVtjSF1jNFtOSF1bQ0gyXVtDSDJdW0NIMl1bQ0gyXU9jKFtjSF1jMzUpW2NIXVtjSF1bY0hdNQ==

>  <s_epik_cmdline>
J2VwaWtfcHl0aG9uJywgJy1waCcsICc3LjAnLCAnLXRuJywgJzgnLCAnLW1hJywgJzIwMCcsICctaW1hZScsICc8aW5maWxlLm1hZT4nLCAnLW9tYWUnLCAnPG91dGZpbGUubWFlPic=

>  <r_lp_tautomer_probability>
0.99995

>  <r_epik_Ionization_Penalty>
0.3230

>  <r_epik_Ionization_Penalty_Charging>
0.0000

>  <r_epik_Ionization_Penalty_Neutral>
0.3230

>  <r_epik_State_Penalty>
0.3176

>  <r_epik_Charging_Adjusted_Penalty>
0.317604

>  <i_epik_Tot_Q>
0

>  <i_epik_Tot_abs_Q>
0

>  <s_lp_Force_Field>
OPLS_2005

>  <r_lp_Energy>
49.9675

>  <b_lp_Chiralities_Consistent>
1

>  <s_lp_Variant>
BACE_14.smi:1-1

>  <chiral flag>
1

>  <version>
0

>  <s_i_glide_gridfile>
second_dock_grid_2

>  <i_i_glide_lignum>
24

>  <i_i_glide_rotatable_bonds>
8

>  <r_i_docking_score>
-3.08991

>  <r_i_glide_ligand_efficiency>
-0.0735694

>  <r_i_glide_ligand_efficiency_sa>
-0.255729

>  <r_i_glide_ligand_efficiency_ln>
-0.652201

>  <r_glide_XP_GScore>
-3.40751

>  <r_i_glide_gscore>
-3.40751

>  <r_i_glide_evdw>
-46.0942

>  <r_i_glide_ecoul>
-5.96164

>  <r_i_glide_energy>
-52.0559

>  <r_i_glide_einternal>
7.9023

>  <r_i_glide_emodel>
-71.6688

>  <r_glide_XP_HBond>
-1.34839

>  <i_i_glide_confnum>
1

>  <i_i_glide_posenum>
3

>  <r_i_glide_eff_state_penalty>
0.3176

>  <i_glide_XP_PoseRank>
1

$$$$
