BACE_113.smi:1
 OpenBabel09291822493D
Structure written by MMmdl.
 78 81  0  0  1  0  0  0  0  0999 V2000
   17.3683   36.9704   -8.8514 C   0  0  0  0  0  0  0  0  0  0  0  0
   17.7110   38.4691   -8.8646 C   0  0  0  0  0  0  0  0  0  0  0  0
   17.2702   39.1382  -10.1748 C   0  0  0  0  0  0  0  0  0  0  0  0
   19.1871   38.7204   -8.5843 C   0  0  0  0  0  0  0  0  0  0  0  0
   20.1656   38.2708   -9.4969 C   0  0  0  0  0  0  0  0  0  0  0  0
   21.5314   38.4997   -9.2451 C   0  0  0  0  0  0  0  0  0  0  0  0
   21.9277   39.1752   -8.0762 C   0  0  0  0  0  0  0  0  0  0  0  0
   20.9585   39.6301   -7.1567 C   0  0  0  0  0  0  0  0  0  0  0  0
   21.3823   40.3720   -5.9006 C   0  0  0  0  0  0  0  0  0  0  0  0
   20.4601   40.1511   -4.7916 N   0  0  0  0  0  0  0  0  0  0  0  0
   20.8154   40.8447   -3.5525 C   0  0  0  0  0  0  0  0  0  0  0  0
   20.9288   42.3705   -3.7630 C   0  0  1  0  0  0  0  0  0  0  0  0
   21.4091   42.9500   -2.5657 O   0  0  0  0  0  0  0  0  0  0  0  0
   21.8197   42.7825   -4.9671 C   0  0  2  0  0  0  0  0  0  0  0  0
   22.9163   43.8231   -4.6276 C   0  0  0  0  0  0  0  0  0  0  0  0
   23.6056   44.4357   -5.8450 C   0  0  0  0  0  0  0  0  0  0  0  0
   23.7231   45.8375   -5.9491 C   0  0  0  0  0  0  0  0  0  0  0  0
   24.3177   46.4172   -7.0851 C   0  0  0  0  0  0  0  0  0  0  0  0
   24.7889   45.5997   -8.1289 C   0  0  0  0  0  0  0  0  0  0  0  0
   24.6725   44.1965   -8.0421 C   0  0  0  0  0  0  0  0  0  0  0  0
   25.1569   43.3244   -9.1914 C   0  0  0  0  0  0  0  0  0  0  0  0
   24.3398   43.5184  -10.4841 C   0  0  0  0  0  0  0  0  0  0  0  0
   22.9717   42.8066  -10.4798 C   0  0  0  0  0  0  0  0  0  0  0  0
   21.9631   43.3931  -11.4923 C   0  0  0  0  0  0  0  0  0  0  0  0
   21.3829   44.7758  -11.1178 C   0  0  0  0  0  0  0  0  0  0  0  0
   20.3405   44.7203  -10.0131 C   0  0  0  0  0  0  0  0  0  0  0  0
   20.7358   44.5785   -8.6704 C   0  0  0  0  0  0  0  0  0  0  0  0
   19.7451   44.4406   -7.6775 C   0  0  0  0  0  0  0  0  0  0  0  0
   18.3920   44.5494   -8.0581 C   0  0  0  0  0  0  0  0  0  0  0  0
   18.0961   44.7188   -9.4285 C   0  0  0  0  0  0  0  0  0  0  0  0
   16.6638   44.8207   -9.9078 C   0  0  0  0  0  0  0  0  0  0  0  0
   19.0441   44.7782  -10.3915 N   0  0  0  0  0  0  0  0  0  0  0  0
   20.1412   44.1698   -6.2611 C   0  0  0  0  0  0  0  0  0  0  0  0
   19.6558   44.7984   -5.3216 O   0  0  0  0  0  0  0  0  0  0  0  0
   21.0487   43.1854   -6.1462 N   0  0  0  0  0  0  0  0  0  0  0  0
   24.1007   43.6181   -6.8883 C   0  0  0  0  0  0  0  0  0  0  0  0
   19.5920   39.3960   -7.4118 C   0  0  0  0  0  0  0  0  0  0  0  0
   19.9237   42.7659   -3.9107 H   0  0  0  0  0  0  0  0  0  0  0  0
   22.3454   41.8868   -5.2996 H   0  0  0  0  0  0  0  0  0  0  0  0
   17.6599   36.5092   -7.9083 H   0  0  0  0  0  0  0  0  0  0  0  0
   17.8725   36.4313   -9.6533 H   0  0  0  0  0  0  0  0  0  0  0  0
   16.2966   36.8139   -8.9754 H   0  0  0  0  0  0  0  0  0  0  0  0
   17.1391   38.9324   -8.0601 H   0  0  0  0  0  0  0  0  0  0  0  0
   17.4594   40.2118  -10.1479 H   0  0  0  0  0  0  0  0  0  0  0  0
   16.2030   38.9972  -10.3477 H   0  0  0  0  0  0  0  0  0  0  0  0
   17.8023   38.7274  -11.0334 H   0  0  0  0  0  0  0  0  0  0  0  0
   19.8749   37.7526  -10.3990 H   0  0  0  0  0  0  0  0  0  0  0  0
   22.2748   38.1593   -9.9505 H   0  0  0  0  0  0  0  0  0  0  0  0
   22.9775   39.3505   -7.8909 H   0  0  0  0  0  0  0  0  0  0  0  0
   22.3998   40.1015   -5.6158 H   0  0  0  0  0  0  0  0  0  0  0  0
   21.4031   41.4342   -6.1458 H   0  0  0  0  0  0  0  0  0  0  0  0
   19.5080   40.3726   -5.0653 H   0  0  0  0  0  0  0  0  0  0  0  0
   20.0589   40.6513   -2.7917 H   0  0  0  0  0  0  0  0  0  0  0  0
   21.7478   40.4453   -3.1527 H   0  0  0  0  0  0  0  0  0  0  0  0
   21.2583   43.8821   -2.6029 H   0  0  0  0  0  0  0  0  0  0  0  0
   22.4699   44.6270   -4.0408 H   0  0  0  0  0  0  0  0  0  0  0  0
   23.6765   43.3705   -3.9903 H   0  0  0  0  0  0  0  0  0  0  0  0
   23.3498   46.4761   -5.1620 H   0  0  0  0  0  0  0  0  0  0  0  0
   24.4032   47.4911   -7.1606 H   0  0  0  0  0  0  0  0  0  0  0  0
   25.2334   46.0545   -9.0019 H   0  0  0  0  0  0  0  0  0  0  0  0
   26.1978   43.5866   -9.3834 H   0  0  0  0  0  0  0  0  0  0  0  0
   25.1578   42.2738   -8.8985 H   0  0  0  0  0  0  0  0  0  0  0  0
   24.2304   44.5833  -10.6842 H   0  0  0  0  0  0  0  0  0  0  0  0
   24.9133   43.1276  -11.3251 H   0  0  0  0  0  0  0  0  0  0  0  0
   23.1371   41.7554  -10.7177 H   0  0  0  0  0  0  0  0  0  0  0  0
   22.5431   42.7959   -9.4806 H   0  0  0  0  0  0  0  0  0  0  0  0
   22.4609   43.4713  -12.4592 H   0  0  0  0  0  0  0  0  0  0  0  0
   21.1408   42.6922  -11.6396 H   0  0  0  0  0  0  0  0  0  0  0  0
   22.1709   45.4701  -10.8277 H   0  0  0  0  0  0  0  0  0  0  0  0
   20.9202   45.2124  -12.0042 H   0  0  0  0  0  0  0  0  0  0  0  0
   21.7829   44.5473   -8.4103 H   0  0  0  0  0  0  0  0  0  0  0  0
   17.6032   44.4722   -7.3242 H   0  0  0  0  0  0  0  0  0  0  0  0
   15.9697   44.8950   -9.0704 H   0  0  0  0  0  0  0  0  0  0  0  0
   16.3998   43.9420  -10.4958 H   0  0  0  0  0  0  0  0  0  0  0  0
   16.5338   45.7036  -10.5339 H   0  0  0  0  0  0  0  0  0  0  0  0
   21.3113   42.7268   -7.0063 H   0  0  0  0  0  0  0  0  0  0  0  0
   24.0125   42.5439   -6.8195 H   0  0  0  0  0  0  0  0  0  0  0  0
   18.8516   39.7401   -6.7049 H   0  0  0  0  0  0  0  0  0  0  0  0
  1  2  1  0  0  0  0
  1 40  1  0  0  0  0
  1 41  1  0  0  0  0
  1 42  1  0  0  0  0
  2  3  1  0  0  0  0
  2  4  1  0  0  0  0
  2 43  1  0  0  0  0
  3 44  1  0  0  0  0
  3 45  1  0  0  0  0
  3 46  1  0  0  0  0
  4 37  1  0  0  0  0
  4  5  2  0  0  0  0
  5  6  1  0  0  0  0
  5 47  1  0  0  0  0
  6  7  2  0  0  0  0
  6 48  1  0  0  0  0
  7  8  1  0  0  0  0
  7 49  1  0  0  0  0
  8  9  1  0  0  0  0
  8 37  2  0  0  0  0
  9 10  1  0  0  0  0
  9 50  1  0  0  0  0
  9 51  1  0  0  0  0
 10 11  1  0  0  0  0
 10 52  1  0  0  0  0
 11 12  1  0  0  0  0
 11 53  1  0  0  0  0
 11 54  1  0  0  0  0
 12 38  1  6  0  0  0
 12 13  1  0  0  0  0
 12 14  1  0  0  0  0
 13 55  1  0  0  0  0
 14 39  1  6  0  0  0
 14 35  1  0  0  0  0
 14 15  1  0  0  0  0
 15 16  1  0  0  0  0
 15 56  1  0  0  0  0
 15 57  1  0  0  0  0
 16 36  1  0  0  0  0
 16 17  2  0  0  0  0
 17 18  1  0  0  0  0
 17 58  1  0  0  0  0
 18 19  2  0  0  0  0
 18 59  1  0  0  0  0
 19 20  1  0  0  0  0
 19 60  1  0  0  0  0
 20 21  1  0  0  0  0
 20 36  2  0  0  0  0
 21 22  1  0  0  0  0
 21 61  1  0  0  0  0
 21 62  1  0  0  0  0
 22 23  1  0  0  0  0
 22 63  1  0  0  0  0
 22 64  1  0  0  0  0
 23 24  1  0  0  0  0
 23 65  1  0  0  0  0
 23 66  1  0  0  0  0
 24 25  1  0  0  0  0
 24 67  1  0  0  0  0
 24 68  1  0  0  0  0
 25 26  1  0  0  0  0
 25 69  1  0  0  0  0
 25 70  1  0  0  0  0
 26 32  1  0  0  0  0
 26 27  2  0  0  0  0
 27 28  1  0  0  0  0
 27 71  1  0  0  0  0
 28 29  2  0  0  0  0
 28 33  1  0  0  0  0
 29 30  1  0  0  0  0
 29 72  1  0  0  0  0
 30 31  1  0  0  0  0
 30 32  2  0  0  0  0
 31 73  1  0  0  0  0
 31 74  1  0  0  0  0
 31 75  1  0  0  0  0
 33 34  2  0  0  0  0
 33 35  1  0  0  0  0
 35 76  1  0  0  0  0
 36 77  1  0  0  0  0
 37 78  1  0  0  0  0
M  END
>  <s_m_source_file>
BACE_113.smi

>  <i_m_source_file_index>
1

>  <i_lp_mmshare_version>
42013

>  <i_f3d_flags>
0

>  <s_epik_input>
W0NIM11bQ0hdKFtDSDNdKWMxW2NIXVtjSF1bY0hdYyhbY0hdMSlbQ0gyXVtOSF1bQ0gyXVtDQEBIXShbT0hdKVtDQEhdKFtDSDJdMilbTkhdQyg9TyljKFtjSF1jKG4zKVtDSDNdKVtjSF1jM1tDSDJdW0NIMl1bQ0gyXVtDSDJdW0NIMl1jKFtjSF00KVtjSF1bY0hdW2NIXWMyNA==

>  <s_epik_cmdline>
J2VwaWtfcHl0aG9uJywgJy1waCcsICc3LjAnLCAnLXRuJywgJzgnLCAnLW1hJywgJzIwMCcsICctaW1hZScsICc8aW5maWxlLm1hZT4nLCAnLW9tYWUnLCAnPG91dGZpbGUubWFlPic=

>  <r_epik_Ionization_Penalty>
2.0202

>  <r_epik_Ionization_Penalty_Charging>
0.0000

>  <r_epik_Ionization_Penalty_Neutral>
2.0202

>  <r_epik_State_Penalty>
2.1460

>  <r_epik_Charging_Adjusted_Penalty>
2.14597

>  <i_epik_Tot_Q>
0

>  <i_epik_Tot_abs_Q>
0

>  <s_lp_Force_Field>
OPLS_2005

>  <r_lp_Energy>
26.8588

>  <b_lp_Chiralities_Consistent>
1

>  <s_lp_Variant>
BACE_113.smi:1-2

>  <chiral flag>
1

>  <version>
0

>  <s_i_glide_gridfile>
second_dock_grid_2

>  <i_i_glide_lignum>
231

>  <i_i_glide_rotatable_bonds>
7

>  <r_i_docking_score>
-0.712702

>  <r_i_glide_ligand_efficiency>
-0.0192622

>  <r_i_glide_ligand_efficiency_sa>
-0.064186

>  <r_i_glide_ligand_efficiency_ln>
-0.154568

>  <r_glide_XP_GScore>
-2.8587

>  <r_i_glide_gscore>
-2.8587

>  <r_i_glide_evdw>
-36.2892

>  <r_i_glide_ecoul>
-9.6383

>  <r_i_glide_energy>
-45.9275

>  <r_i_glide_einternal>
7.97788

>  <r_i_glide_emodel>
-63.1353

>  <r_glide_XP_HBond>
-1.79504

>  <i_i_glide_confnum>
1

>  <i_i_glide_posenum>
13

>  <r_i_glide_eff_state_penalty>
2.146

>  <i_glide_XP_PoseRank>
1

$$$$
