BACE_89.smi:1
 OpenBabel09291822493D
Structure written by MMmdl.
 80 83  0  0  1  0  0  0  0  0999 V2000
   15.5165   45.4883   -8.1906 C   0  0  0  0  0  0  0  0  0  0  0  0
   16.3977   44.2387   -8.1090 C   0  0  0  0  0  0  0  0  0  0  0  0
   17.7725   44.5071   -8.7198 C   0  0  0  0  0  0  0  0  0  0  0  0
   15.7253   43.0078   -8.7047 C   0  0  0  0  0  0  0  0  0  0  0  0
   15.4562   41.8919   -7.8843 C   0  0  0  0  0  0  0  0  0  0  0  0
   14.8600   40.7275   -8.4041 C   0  0  0  0  0  0  0  0  0  0  0  0
   14.5910   39.5220   -7.4978 C   0  0  0  0  0  0  0  0  0  0  0  0
   15.8098   38.9706   -6.8590 N   0  3  0  0  0  0  0  0  0  0  0  0
   17.0606   39.2105   -7.6200 C   0  0  0  0  0  0  0  0  0  0  0  0
   18.1354   38.1591   -7.3925 C   0  0  1  0  0  0  0  0  0  0  0  0
   17.6782   36.9785   -8.0400 O   0  0  0  0  0  0  0  0  0  0  0  0
   19.5484   38.6289   -7.8778 C   0  0  2  0  0  0  0  0  0  0  0  0
   20.2991   39.4032   -6.7602 C   0  0  0  0  0  0  0  0  0  0  0  0
   21.4323   40.2990   -7.2503 C   0  0  0  0  0  0  0  0  0  0  0  0
   21.3563   41.7002   -7.0856 C   0  0  0  0  0  0  0  0  0  0  0  0
   22.3883   42.5401   -7.5518 C   0  0  0  0  0  0  0  0  0  0  0  0
   23.5189   41.9562   -8.1723 C   0  0  0  0  0  0  0  0  0  0  0  0
   23.5928   40.5667   -8.3533 C   0  0  0  0  0  0  0  0  0  0  0  0
   22.5551   39.7356   -7.8910 C   0  0  0  0  0  0  0  0  0  0  0  0
   22.2296   43.8987   -7.3791 O   0  0  0  0  0  0  0  0  0  0  0  0
   23.1122   44.7589   -8.0904 C   0  0  0  0  0  0  0  0  0  0  0  0
   22.5145   46.1665   -8.1678 C   0  0  0  0  0  0  0  0  0  0  0  0
   21.1091   46.2232   -8.7931 C   0  0  0  0  0  0  0  0  0  0  0  0
   20.9733   45.5375  -10.1647 C   0  0  0  0  0  0  0  0  0  0  0  0
   20.6619   44.1593   -9.9939 O   0  0  0  0  0  0  0  0  0  0  0  0
   20.6162   43.4345  -11.2155 C   0  0  1  0  0  0  0  0  0  0  0  0
   21.9666   42.7755  -11.5352 C   0  0  0  0  0  0  0  0  0  0  0  0
   21.6609   41.2978  -11.8198 C   0  0  0  0  0  0  0  0  0  0  0  0
   20.2874   41.0992  -11.3941 N   0  0  0  0  0  0  0  0  0  0  0  0
   19.6359   39.8054  -11.5847 C   0  0  0  0  0  0  0  0  0  0  0  0
   19.4484   38.9357  -10.3351 C   0  0  0  0  0  0  0  0  0  0  0  0
   19.2600   37.7412  -10.4978 O   0  0  0  0  0  0  0  0  0  0  0  0
   19.5252   39.4529   -9.1024 N   0  0  0  0  0  0  0  0  0  0  0  0
   19.6721   42.2448  -11.0878 C   0  0  0  0  0  0  0  0  0  0  0  0
   18.4807   42.3539  -10.7999 O   0  0  0  0  0  0  0  0  0  0  0  0
   14.5157   40.6836   -9.7717 C   0  0  0  0  0  0  0  0  0  0  0  0
   14.7703   41.7956  -10.5985 C   0  0  0  0  0  0  0  0  0  0  0  0
   15.3745   42.9536  -10.0689 C   0  0  0  0  0  0  0  0  0  0  0  0
   18.2041   37.9233   -6.3291 H   0  0  0  0  0  0  0  0  0  0  0  0
   20.1608   37.7498   -8.0865 H   0  0  0  0  0  0  0  0  0  0  0  0
   20.2599   44.0537  -12.0398 H   0  0  0  0  0  0  0  0  0  0  0  0
   14.5898   45.3536   -7.6318 H   0  0  0  0  0  0  0  0  0  0  0  0
   15.2625   45.7359   -9.2203 H   0  0  0  0  0  0  0  0  0  0  0  0
   16.0570   46.3385   -7.7686 H   0  0  0  0  0  0  0  0  0  0  0  0
   16.5790   44.0413   -7.0523 H   0  0  0  0  0  0  0  0  0  0  0  0
   18.4424   43.6650   -8.5475 H   0  0  0  0  0  0  0  0  0  0  0  0
   18.2235   45.3876   -8.2636 H   0  0  0  0  0  0  0  0  0  0  0  0
   17.7123   44.6867   -9.7924 H   0  0  0  0  0  0  0  0  0  0  0  0
   15.7217   41.9211   -6.8393 H   0  0  0  0  0  0  0  0  0  0  0  0
   13.8753   39.7691   -6.7150 H   0  0  0  0  0  0  0  0  0  0  0  0
   14.1317   38.7270   -8.0890 H   0  0  0  0  0  0  0  0  0  0  0  0
   15.8917   39.4059   -5.9479 H   0  0  0  0  0  0  0  0  0  0  0  0
   16.8650   39.2395   -8.6921 H   0  0  0  0  0  0  0  0  0  0  0  0
   17.4461   40.1887   -7.3328 H   0  0  0  0  0  0  0  0  0  0  0  0
   17.0665   36.5503   -7.4402 H   0  0  0  0  0  0  0  0  0  0  0  0
   19.5968   40.0241   -6.2033 H   0  0  0  0  0  0  0  0  0  0  0  0
   20.7053   38.6944   -6.0406 H   0  0  0  0  0  0  0  0  0  0  0  0
   20.4951   42.1435   -6.6088 H   0  0  0  0  0  0  0  0  0  0  0  0
   24.3465   42.5506   -8.5292 H   0  0  0  0  0  0  0  0  0  0  0  0
   24.4614   40.1491   -8.8399 H   0  0  0  0  0  0  0  0  0  0  0  0
   22.6186   38.6664   -8.0401 H   0  0  0  0  0  0  0  0  0  0  0  0
   24.0770   44.7885   -7.5833 H   0  0  0  0  0  0  0  0  0  0  0  0
   23.2884   44.4091   -9.1074 H   0  0  0  0  0  0  0  0  0  0  0  0
   22.4734   46.5936   -7.1658 H   0  0  0  0  0  0  0  0  0  0  0  0
   23.1888   46.8022   -8.7406 H   0  0  0  0  0  0  0  0  0  0  0  0
   20.3911   45.7926   -8.0961 H   0  0  0  0  0  0  0  0  0  0  0  0
   20.8315   47.2721   -8.8951 H   0  0  0  0  0  0  0  0  0  0  0  0
   20.1549   46.0013  -10.7162 H   0  0  0  0  0  0  0  0  0  0  0  0
   21.8798   45.6736  -10.7580 H   0  0  0  0  0  0  0  0  0  0  0  0
   22.4648   43.2508  -12.3804 H   0  0  0  0  0  0  0  0  0  0  0  0
   22.6414   42.8489  -10.6832 H   0  0  0  0  0  0  0  0  0  0  0  0
   21.7354   41.0834  -12.8891 H   0  0  0  0  0  0  0  0  0  0  0  0
   22.3430   40.6316  -11.2866 H   0  0  0  0  0  0  0  0  0  0  0  0
   18.6559   39.9549  -12.0396 H   0  0  0  0  0  0  0  0  0  0  0  0
   20.2132   39.2289  -12.3093 H   0  0  0  0  0  0  0  0  0  0  0  0
   19.7058   40.4427   -9.0032 H   0  0  0  0  0  0  0  0  0  0  0  0
   14.0449   39.8039  -10.1862 H   0  0  0  0  0  0  0  0  0  0  0  0
   14.5008   41.7603  -11.6396 H   0  0  0  0  0  0  0  0  0  0  0  0
   15.5788   43.7944  -10.7147 H   0  0  0  0  0  0  0  0  0  0  0  0
   15.6651   37.9770   -6.6811 H   0  0  0  0  0  0  0  0  0  0  0  0
  1  2  1  0  0  0  0
  1 42  1  0  0  0  0
  1 43  1  0  0  0  0
  1 44  1  0  0  0  0
  2  3  1  0  0  0  0
  2  4  1  0  0  0  0
  2 45  1  0  0  0  0
  3 46  1  0  0  0  0
  3 47  1  0  0  0  0
  3 48  1  0  0  0  0
  4 38  1  0  0  0  0
  4  5  2  0  0  0  0
  5  6  1  0  0  0  0
  5 49  1  0  0  0  0
  6  7  1  0  0  0  0
  6 36  2  0  0  0  0
  7  8  1  0  0  0  0
  7 50  1  0  0  0  0
  7 51  1  0  0  0  0
  8  9  1  0  0  0  0
  8 52  1  0  0  0  0
  8 80  1  0  0  0  0
  9 10  1  0  0  0  0
  9 53  1  0  0  0  0
  9 54  1  0  0  0  0
 10 39  1  1  0  0  0
 10 11  1  0  0  0  0
 10 12  1  0  0  0  0
 11 55  1  0  0  0  0
 12 40  1  6  0  0  0
 12 33  1  0  0  0  0
 12 13  1  0  0  0  0
 13 14  1  0  0  0  0
 13 56  1  0  0  0  0
 13 57  1  0  0  0  0
 14 19  1  0  0  0  0
 14 15  2  0  0  0  0
 15 16  1  0  0  0  0
 15 58  1  0  0  0  0
 16 17  2  0  0  0  0
 16 20  1  0  0  0  0
 17 18  1  0  0  0  0
 17 59  1  0  0  0  0
 18 19  2  0  0  0  0
 18 60  1  0  0  0  0
 19 61  1  0  0  0  0
 20 21  1  0  0  0  0
 21 22  1  0  0  0  0
 21 62  1  0  0  0  0
 21 63  1  0  0  0  0
 22 23  1  0  0  0  0
 22 64  1  0  0  0  0
 22 65  1  0  0  0  0
 23 24  1  0  0  0  0
 23 66  1  0  0  0  0
 23 67  1  0  0  0  0
 24 25  1  0  0  0  0
 24 68  1  0  0  0  0
 24 69  1  0  0  0  0
 25 26  1  0  0  0  0
 26 41  1  6  0  0  0
 26 34  1  0  0  0  0
 26 27  1  0  0  0  0
 27 28  1  0  0  0  0
 27 70  1  0  0  0  0
 27 71  1  0  0  0  0
 28 29  1  0  0  0  0
 28 72  1  0  0  0  0
 28 73  1  0  0  0  0
 29 30  1  0  0  0  0
 29 34  1  0  0  0  0
 30 31  1  0  0  0  0
 30 74  1  0  0  0  0
 30 75  1  0  0  0  0
 31 32  2  0  0  0  0
 31 33  1  0  0  0  0
 33 76  1  0  0  0  0
 34 35  2  0  0  0  0
 36 37  1  0  0  0  0
 36 77  1  0  0  0  0
 37 38  2  0  0  0  0
 37 78  1  0  0  0  0
 38 79  1  0  0  0  0
M  CHG  1   8   1
M  END
>  <s_m_source_file>
BACE_89.smi

>  <i_m_source_file_index>
1

>  <i_lp_mmshare_version>
42013

>  <i_f3d_flags>
0

>  <s_epik_input>
W0NIM11bQ0hdKFtDSDNdKWMxW2NIXWMoW2NIXVtjSF1bY0hdMSlbQ0gyXVtOSF1bQ0gyXVtDQEBIXShbT0hdKVtDQEhdKFtDSDJdMilbTkhdQyg9TylbQ0gyXU4oQzM9TylbQ0gyXVtDSDJdW0NAQEhdM09bQ0gyXVtDSDJdW0NIMl1bQ0gyXU9jKFtjSF1jMjQpW2NIXVtjSF1bY0hdNA==

>  <s_epik_cmdline>
J2VwaWtfcHl0aG9uJywgJy1waCcsICc3LjAnLCAnLXRuJywgJzgnLCAnLW1hJywgJzIwMCcsICctaW1hZScsICc8aW5maWxlLm1hZT4nLCAnLW9tYWUnLCAnPG91dGZpbGUubWFlPic=

>  <r_lp_tautomer_probability>
1

>  <r_epik_Ionization_Penalty>
0.0210

>  <r_epik_Ionization_Penalty_Charging>
0.0210

>  <r_epik_Ionization_Penalty_Neutral>
0.0000

>  <r_epik_State_Penalty>
0.0169

>  <r_epik_Charging_Adjusted_Penalty>
0.0378979

>  <i_epik_Tot_Q>
1

>  <i_epik_Tot_abs_Q>
1

>  <s_lp_Force_Field>
OPLS_2005

>  <r_lp_Energy>
33.6927

>  <b_lp_Chiralities_Consistent>
1

>  <s_lp_Variant>
BACE_89.smi:1-1

>  <chiral flag>
1

>  <version>
0

>  <s_i_glide_gridfile>
second_dock_grid_2

>  <i_i_glide_lignum>
180

>  <i_i_glide_rotatable_bonds>
7

>  <r_i_docking_score>
-6.12737

>  <r_i_glide_ligand_efficiency>
-0.161247

>  <r_i_glide_ligand_efficiency_sa>
-0.542107

>  <r_i_glide_ligand_efficiency_ln>
-1.32124

>  <r_glide_XP_GScore>
-6.14427

>  <r_i_glide_gscore>
-6.14427

>  <r_i_glide_evdw>
-36.35

>  <r_i_glide_ecoul>
-15.8929

>  <r_i_glide_energy>
-52.2429

>  <r_i_glide_einternal>
4.81879

>  <r_i_glide_emodel>
-74.3464

>  <r_glide_XP_HBond>
-2.06312

>  <i_i_glide_confnum>
1

>  <i_i_glide_posenum>
12

>  <r_i_glide_eff_state_penalty>
0.0169

>  <i_glide_XP_PoseRank>
1

$$$$
