BACE_42.smi:1
 OpenBabel09291822493D
Structure written by MMmdl.
 82 84  0  0  1  0  0  0  0  0999 V2000
   30.8944   45.8338  -10.0803 C   0  0  0  0  0  0  0  0  0  0  0  0
   30.5970   44.6101   -9.2009 C   0  0  0  0  0  0  0  0  0  0  0  0
   31.8827   44.0120   -8.6103 C   0  0  0  0  0  0  0  0  0  0  0  0
   29.7583   43.5863   -9.9579 C   0  0  0  0  0  0  0  0  0  0  0  0
   30.3399   42.6916  -10.8832 C   0  0  0  0  0  0  0  0  0  0  0  0
   29.5336   41.7757  -11.5853 C   0  0  0  0  0  0  0  0  0  0  0  0
   28.1429   41.7505  -11.3728 C   0  0  0  0  0  0  0  0  0  0  0  0
   27.5494   42.6368  -10.4459 C   0  0  0  0  0  0  0  0  0  0  0  0
   26.0513   42.6624  -10.1966 C   0  0  0  0  0  0  0  0  0  0  0  0
   25.3750   41.3895  -10.4400 N   0  0  0  0  0  0  0  0  0  0  0  0
   24.1400   41.1875   -9.6777 C   0  0  0  0  0  0  0  0  0  0  0  0
   23.0534   42.2704   -9.9314 C   0  0  1  0  0  0  0  0  0  0  0  0
   22.5393   42.0937  -11.2400 O   0  0  0  0  0  0  0  0  0  0  0  0
   21.8330   42.2817   -8.9529 C   0  0  2  0  0  0  0  0  0  0  0  0
   21.4435   43.7421   -8.6004 C   0  0  0  0  0  0  0  0  0  0  0  0
   20.0379   44.0060   -8.0040 C   0  0  2  0  0  0  0  0  0  0  0  0
   19.8584   43.4627   -6.5743 C   0  0  0  0  0  0  0  0  0  0  0  0
   18.9012   43.5621   -8.9482 C   0  0  0  0  0  0  0  0  0  0  0  0
   17.5541   44.2651   -8.6790 C   0  0  0  0  0  0  0  0  0  0  0  0
   16.3918   43.6978   -9.5195 C   0  0  0  0  0  0  0  0  0  0  0  0
   15.5331   42.6451   -8.7903 C   0  0  0  0  0  0  0  0  0  0  0  0
   16.3356   41.4435   -8.2729 C   0  0  0  0  0  0  0  0  0  0  0  0
   15.4750   40.3521   -7.6248 C   0  0  0  0  0  0  0  0  0  0  0  0
   16.3283   39.2223   -7.0187 C   0  0  0  0  0  0  0  0  0  0  0  0
   17.0106   38.4244   -8.0405 N   0  0  0  0  0  0  0  0  0  0  0  0
   16.2015   37.5160   -8.8400 C   0  0  0  0  0  0  0  0  0  0  0  0
   18.3214   38.7086   -8.4779 C   0  0  0  0  0  0  0  0  0  0  0  0
   19.2627   39.3815   -7.6610 C   0  0  0  0  0  0  0  0  0  0  0  0
   20.5510   39.6530   -8.1672 C   0  0  0  0  0  0  0  0  0  0  0  0
   20.8650   39.2126   -9.4699 C   0  0  0  0  0  0  0  0  0  0  0  0
   19.8720   38.5498  -10.2087 C   0  0  0  0  0  0  0  0  0  0  0  0
   18.6404   38.3028   -9.7306 N   0  0  0  0  0  0  0  0  0  0  0  0
   21.5647   40.3516   -7.3060 C   0  0  0  0  0  0  0  0  0  0  0  0
   21.8674   39.8828   -6.2113 O   0  0  0  0  0  0  0  0  0  0  0  0
   22.1004   41.5133   -7.7303 N   0  0  0  0  0  0  0  0  0  0  0  0
   28.3643   43.5510   -9.7480 C   0  0  0  0  0  0  0  0  0  0  0  0
   23.5260   43.2506   -9.8922 H   0  0  0  0  0  0  0  0  0  0  0  0
   20.9799   41.8464   -9.4706 H   0  0  0  0  0  0  0  0  0  0  0  0
   19.9699   45.0912   -7.9230 H   0  0  0  0  0  0  0  0  0  0  0  0
   29.9712   46.3001  -10.4271 H   0  0  0  0  0  0  0  0  0  0  0  0
   31.4761   45.5586  -10.9605 H   0  0  0  0  0  0  0  0  0  0  0  0
   31.4571   46.5878   -9.5284 H   0  0  0  0  0  0  0  0  0  0  0  0
   29.9998   44.9559   -8.3549 H   0  0  0  0  0  0  0  0  0  0  0  0
   31.6605   43.1167   -8.0294 H   0  0  0  0  0  0  0  0  0  0  0  0
   32.3728   44.7239   -7.9455 H   0  0  0  0  0  0  0  0  0  0  0  0
   32.5974   43.7498   -9.3895 H   0  0  0  0  0  0  0  0  0  0  0  0
   31.4039   42.7064  -11.0698 H   0  0  0  0  0  0  0  0  0  0  0  0
   29.9782   41.0929  -12.2962 H   0  0  0  0  0  0  0  0  0  0  0  0
   27.5416   41.0395  -11.9212 H   0  0  0  0  0  0  0  0  0  0  0  0
   25.9084   42.9618   -9.1567 H   0  0  0  0  0  0  0  0  0  0  0  0
   25.6121   43.4501  -10.8096 H   0  0  0  0  0  0  0  0  0  0  0  0
   25.1549   41.3115  -11.4297 H   0  0  0  0  0  0  0  0  0  0  0  0
   23.7449   40.1960   -9.8884 H   0  0  0  0  0  0  0  0  0  0  0  0
   24.4102   41.1774   -8.6214 H   0  0  0  0  0  0  0  0  0  0  0  0
   23.2061   41.7021  -11.7917 H   0  0  0  0  0  0  0  0  0  0  0  0
   22.1997   44.1675   -7.9385 H   0  0  0  0  0  0  0  0  0  0  0  0
   21.5045   44.3363   -9.5130 H   0  0  0  0  0  0  0  0  0  0  0  0
   19.7100   42.3840   -6.5659 H   0  0  0  0  0  0  0  0  0  0  0  0
   18.9876   43.9039   -6.0902 H   0  0  0  0  0  0  0  0  0  0  0  0
   20.7232   43.6901   -5.9504 H   0  0  0  0  0  0  0  0  0  0  0  0
   19.1886   43.7691   -9.9805 H   0  0  0  0  0  0  0  0  0  0  0  0
   18.7937   42.4789   -8.8884 H   0  0  0  0  0  0  0  0  0  0  0  0
   17.2939   44.2230   -7.6212 H   0  0  0  0  0  0  0  0  0  0  0  0
   17.6740   45.3233   -8.9137 H   0  0  0  0  0  0  0  0  0  0  0  0
   15.7362   44.5209   -9.8042 H   0  0  0  0  0  0  0  0  0  0  0  0
   16.7714   43.2878  -10.4565 H   0  0  0  0  0  0  0  0  0  0  0  0
   15.0106   43.1157   -7.9586 H   0  0  0  0  0  0  0  0  0  0  0  0
   14.7579   42.2912   -9.4702 H   0  0  0  0  0  0  0  0  0  0  0  0
   16.8997   41.0160   -9.1025 H   0  0  0  0  0  0  0  0  0  0  0  0
   17.0635   41.7803   -7.5349 H   0  0  0  0  0  0  0  0  0  0  0  0
   14.8628   40.7943   -6.8351 H   0  0  0  0  0  0  0  0  0  0  0  0
   14.7692   39.9450   -8.3488 H   0  0  0  0  0  0  0  0  0  0  0  0
   17.0171   39.6264   -6.2841 H   0  0  0  0  0  0  0  0  0  0  0  0
   15.6809   38.5564   -6.4455 H   0  0  0  0  0  0  0  0  0  0  0  0
   16.6992   36.5536   -8.9597 H   0  0  0  0  0  0  0  0  0  0  0  0
   15.9895   37.9375   -9.8229 H   0  0  0  0  0  0  0  0  0  0  0  0
   15.2600   37.3510   -8.3311 H   0  0  0  0  0  0  0  0  0  0  0  0
   19.0254   39.6925   -6.6543 H   0  0  0  0  0  0  0  0  0  0  0  0
   21.8385   39.3670   -9.9025 H   0  0  0  0  0  0  0  0  0  0  0  0
   20.0651   38.2066  -11.2144 H   0  0  0  0  0  0  0  0  0  0  0  0
   22.7588   41.9312   -7.0918 H   0  0  0  0  0  0  0  0  0  0  0  0
   27.9105   44.2390   -9.0504 H   0  0  0  0  0  0  0  0  0  0  0  0
  1  2  1  0  0  0  0
  1 40  1  0  0  0  0
  1 41  1  0  0  0  0
  1 42  1  0  0  0  0
  2  3  1  0  0  0  0
  2  4  1  0  0  0  0
  2 43  1  0  0  0  0
  3 44  1  0  0  0  0
  3 45  1  0  0  0  0
  3 46  1  0  0  0  0
  4 36  1  0  0  0  0
  4  5  2  0  0  0  0
  5  6  1  0  0  0  0
  5 47  1  0  0  0  0
  6  7  2  0  0  0  0
  6 48  1  0  0  0  0
  7  8  1  0  0  0  0
  7 49  1  0  0  0  0
  8  9  1  0  0  0  0
  8 36  2  0  0  0  0
  9 10  1  0  0  0  0
  9 50  1  0  0  0  0
  9 51  1  0  0  0  0
 10 11  1  0  0  0  0
 10 52  1  0  0  0  0
 11 12  1  0  0  0  0
 11 53  1  0  0  0  0
 11 54  1  0  0  0  0
 12 37  1  1  0  0  0
 12 13  1  0  0  0  0
 12 14  1  0  0  0  0
 13 55  1  0  0  0  0
 14 38  1  6  0  0  0
 14 35  1  0  0  0  0
 14 15  1  0  0  0  0
 15 16  1  0  0  0  0
 15 56  1  0  0  0  0
 15 57  1  0  0  0  0
 16 39  1  1  0  0  0
 16 17  1  0  0  0  0
 16 18  1  0  0  0  0
 17 58  1  0  0  0  0
 17 59  1  0  0  0  0
 17 60  1  0  0  0  0
 18 19  1  0  0  0  0
 18 61  1  0  0  0  0
 18 62  1  0  0  0  0
 19 20  1  0  0  0  0
 19 63  1  0  0  0  0
 19 64  1  0  0  0  0
 20 21  1  0  0  0  0
 20 65  1  0  0  0  0
 20 66  1  0  0  0  0
 21 22  1  0  0  0  0
 21 67  1  0  0  0  0
 21 68  1  0  0  0  0
 22 23  1  0  0  0  0
 22 69  1  0  0  0  0
 22 70  1  0  0  0  0
 23 24  1  0  0  0  0
 23 71  1  0  0  0  0
 23 72  1  0  0  0  0
 24 25  1  0  0  0  0
 24 73  1  0  0  0  0
 24 74  1  0  0  0  0
 25 26  1  0  0  0  0
 25 27  1  0  0  0  0
 26 75  1  0  0  0  0
 26 76  1  0  0  0  0
 26 77  1  0  0  0  0
 27 32  1  0  0  0  0
 27 28  2  0  0  0  0
 28 29  1  0  0  0  0
 28 78  1  0  0  0  0
 29 30  2  0  0  0  0
 29 33  1  0  0  0  0
 30 31  1  0  0  0  0
 30 79  1  0  0  0  0
 31 32  2  0  0  0  0
 31 80  1  0  0  0  0
 33 34  2  0  0  0  0
 33 35  1  0  0  0  0
 35 81  1  0  0  0  0
 36 82  1  0  0  0  0
M  END
>  <s_m_source_file>
BACE_42.smi

>  <i_m_source_file_index>
1

>  <i_lp_mmshare_version>
42013

>  <i_f3d_flags>
0

>  <s_epik_input>
W0NIM11bQ0hdKFtDSDNdKWMxW2NIXVtjSF1bY0hdYyhbY0hdMSlbQ0gyXVtOSF1bQ0gyXVtDQEBIXShbT0hdKVtDQEBIXShbTkhdQyg9TyljKFtjSF1jMjMpW2NIXVtjSF1uMylbQ0gyXVtDQEhdKFtDSDNdKVtDSDJdW0NIMl1bQ0gyXVtDSDJdW0NIMl1bQ0gyXVtDSDJdTjJbQ0gzXQ==

>  <s_epik_cmdline>
J2VwaWtfcHl0aG9uJywgJy1waCcsICc3LjAnLCAnLXRuJywgJzgnLCAnLW1hJywgJzIwMCcsICctaW1hZScsICc8aW5maWxlLm1hZT4nLCAnLW9tYWUnLCAnPG91dGZpbGUubWFlPic=

>  <r_lp_tautomer_probability>
1

>  <r_epik_Ionization_Penalty>
2.1126

>  <r_epik_Ionization_Penalty_Charging>
0.0000

>  <r_epik_Ionization_Penalty_Neutral>
2.1126

>  <r_epik_State_Penalty>
2.3028

>  <r_epik_Charging_Adjusted_Penalty>
2.30283

>  <i_epik_Tot_Q>
0

>  <i_epik_Tot_abs_Q>
0

>  <s_lp_Force_Field>
OPLS_2005

>  <r_lp_Energy>
44.6028

>  <b_lp_Chiralities_Consistent>
1

>  <s_lp_Variant>
BACE_42.smi:1-2

>  <chiral flag>
1

>  <version>
0

>  <s_i_glide_gridfile>
second_dock_grid_2

>  <i_i_glide_lignum>
77

>  <i_i_glide_rotatable_bonds>
7

>  <r_i_docking_score>
-1.84375

>  <r_i_glide_ligand_efficiency>
-0.0512152

>  <r_i_glide_ligand_efficiency_sa>
-0.169109

>  <r_i_glide_ligand_efficiency_ln>
-0.402256

>  <r_glide_XP_GScore>
-4.14655

>  <r_i_glide_gscore>
-4.14655

>  <r_i_glide_evdw>
-40.8028

>  <r_i_glide_ecoul>
-5.20951

>  <r_i_glide_energy>
-46.0123

>  <r_i_glide_einternal>
2.88919

>  <r_i_glide_emodel>
-59.9986

>  <r_glide_XP_HBond>
-1.73106

>  <i_i_glide_confnum>
1

>  <i_i_glide_posenum>
8

>  <r_i_glide_eff_state_penalty>
2.3028

>  <i_glide_XP_PoseRank>
1

$$$$
