BACE_77.smi:1
 OpenBabel09291822493D
Structure written by MMmdl.
 87 90  0  0  1  0  0  0  0  0999 V2000
   20.2816   42.6813   -1.7371 C   0  0  0  0  0  0  0  0  0  0  0  0
   21.6577   42.3626   -1.8981 O   0  0  0  0  0  0  0  0  0  0  0  0
   22.3411   43.0122   -2.9616 C   0  0  0  0  0  0  0  0  0  0  0  0
   21.7151   42.7471   -4.3124 C   0  0  0  0  0  0  0  0  0  0  0  0
   20.7806   43.6443   -4.8682 C   0  0  0  0  0  0  0  0  0  0  0  0
   20.1406   43.3455   -6.0855 C   0  0  0  0  0  0  0  0  0  0  0  0
   20.4634   42.1559   -6.7655 C   0  0  0  0  0  0  0  0  0  0  0  0
   21.4487   41.2875   -6.2460 C   0  0  0  0  0  0  0  0  0  0  0  0
   22.0459   41.5685   -5.0041 C   0  0  0  0  0  0  0  0  0  0  0  0
   21.8485   40.0409   -6.9649 C   0  0  0  0  0  0  0  0  0  0  0  0
   21.6615   38.9503   -6.4408 O   0  0  0  0  0  0  0  0  0  0  0  0
   22.4600   40.1478   -8.1548 N   0  0  0  0  0  0  0  0  0  0  0  0
   22.8216   41.3450   -8.9269 C   0  0  1  0  0  0  0  0  0  0  0  0
   24.2057   41.8169   -8.4398 C   0  0  0  0  0  0  0  0  0  0  0  0
   24.8682   42.9454   -9.2223 C   0  0  0  0  0  0  0  0  0  0  0  0
   25.9430   42.5031  -10.1979 C   0  0  0  0  0  0  0  0  0  0  0  0
   24.5907   44.2510   -9.0325 C   0  0  0  0  0  0  0  0  0  0  0  0
   23.5481   44.8300   -8.0896 C   0  0  0  0  0  0  0  0  0  0  0  0
   22.7258   45.8077   -8.7175 O   0  0  0  0  0  0  0  0  0  0  0  0
   22.0245   45.3490   -9.8679 C   0  0  0  0  0  0  0  0  0  0  0  0
   20.5689   45.8364   -9.8457 C   0  0  0  0  0  0  0  0  0  0  0  0
   19.6669   44.9858   -8.9369 C   0  0  0  0  0  0  0  0  0  0  0  0
   19.8459   45.2666   -7.4353 C   0  0  0  0  0  0  0  0  0  0  0  0
   19.2125   44.2366   -6.6282 N   0  0  0  0  0  0  0  0  0  0  0  0
   22.7275   40.9940  -10.4357 C   0  0  2  0  0  0  0  0  0  0  0  0
   22.7773   42.1499  -11.2404 O   0  0  0  0  0  0  0  0  0  0  0  0
   21.4501   40.2318  -10.8450 C   0  0  0  0  0  0  0  0  0  0  0  0
   20.2617   40.7228  -10.1292 N   0  0  0  0  0  0  0  0  0  0  0  0
   18.9889   40.0515  -10.3796 C   0  0  0  0  0  0  0  0  0  0  0  0
   18.9307   38.7520  -11.1494 C   0  0  0  0  0  0  0  0  0  0  0  0
   18.4783   40.0426  -11.7946 C   0  0  0  0  0  0  0  0  0  0  0  0
   18.0031   40.2669   -9.2758 C   0  0  0  0  0  0  0  0  0  0  0  0
   17.1164   41.3601   -9.3347 C   0  0  0  0  0  0  0  0  0  0  0  0
   16.0921   41.5158   -8.3788 C   0  0  0  0  0  0  0  0  0  0  0  0
   15.9730   40.5741   -7.3309 C   0  0  0  0  0  0  0  0  0  0  0  0
   16.8754   39.4958   -7.2432 C   0  0  0  0  0  0  0  0  0  0  0  0
   17.8911   39.3464   -8.2089 C   0  0  0  0  0  0  0  0  0  0  0  0
   15.1110   42.6731   -8.4915 C   0  0  0  0  0  0  0  0  0  0  0  0
   15.8293   44.0320   -8.4418 C   0  0  0  0  0  0  0  0  0  0  0  0
   14.2300   42.5424   -9.7456 C   0  0  0  0  0  0  0  0  0  0  0  0
   22.1086   42.1468   -8.7482 H   0  0  0  0  0  0  0  0  0  0  0  0
   23.5847   40.3775  -10.7103 H   0  0  0  0  0  0  0  0  0  0  0  0
   19.9072   42.2085   -0.8288 H   0  0  0  0  0  0  0  0  0  0  0  0
   19.6771   42.3120   -2.5659 H   0  0  0  0  0  0  0  0  0  0  0  0
   20.1283   43.7519   -1.6375 H   0  0  0  0  0  0  0  0  0  0  0  0
   23.3545   42.6128   -2.9755 H   0  0  0  0  0  0  0  0  0  0  0  0
   22.4594   44.0789   -2.7768 H   0  0  0  0  0  0  0  0  0  0  0  0
   20.5183   44.5500   -4.3496 H   0  0  0  0  0  0  0  0  0  0  0  0
   19.9619   41.9212   -7.6921 H   0  0  0  0  0  0  0  0  0  0  0  0
   22.7641   40.8810   -4.5834 H   0  0  0  0  0  0  0  0  0  0  0  0
   22.7553   39.2691   -8.5605 H   0  0  0  0  0  0  0  0  0  0  0  0
   24.1255   42.1432   -7.4024 H   0  0  0  0  0  0  0  0  0  0  0  0
   24.8623   40.9544   -8.4393 H   0  0  0  0  0  0  0  0  0  0  0  0
   26.3587   43.3482  -10.7490 H   0  0  0  0  0  0  0  0  0  0  0  0
   25.5438   41.7957  -10.9249 H   0  0  0  0  0  0  0  0  0  0  0  0
   26.7590   42.0143   -9.6642 H   0  0  0  0  0  0  0  0  0  0  0  0
   25.1357   44.9872   -9.6032 H   0  0  0  0  0  0  0  0  0  0  0  0
   22.9169   44.0561   -7.6549 H   0  0  0  0  0  0  0  0  0  0  0  0
   24.0632   45.3099   -7.2587 H   0  0  0  0  0  0  0  0  0  0  0  0
   22.0300   44.2621   -9.9496 H   0  0  0  0  0  0  0  0  0  0  0  0
   22.5407   45.7301  -10.7495 H   0  0  0  0  0  0  0  0  0  0  0  0
   20.5207   46.8921   -9.5772 H   0  0  0  0  0  0  0  0  0  0  0  0
   20.1804   45.7652  -10.8633 H   0  0  0  0  0  0  0  0  0  0  0  0
   19.8491   43.9319   -9.1504 H   0  0  0  0  0  0  0  0  0  0  0  0
   18.6256   45.1656   -9.2026 H   0  0  0  0  0  0  0  0  0  0  0  0
   20.9012   45.3439   -7.1798 H   0  0  0  0  0  0  0  0  0  0  0  0
   19.4073   46.2329   -7.1864 H   0  0  0  0  0  0  0  0  0  0  0  0
   18.4865   43.7507   -7.1403 H   0  0  0  0  0  0  0  0  0  0  0  0
   23.0867   41.8844  -12.0981 H   0  0  0  0  0  0  0  0  0  0  0  0
   21.6037   39.1775  -10.5991 H   0  0  0  0  0  0  0  0  0  0  0  0
   21.3108   40.2757  -11.9260 H   0  0  0  0  0  0  0  0  0  0  0  0
   20.4428   40.7226   -9.1249 H   0  0  0  0  0  0  0  0  0  0  0  0
   19.8264   38.2977  -11.5643 H   0  0  0  0  0  0  0  0  0  0  0  0
   18.1669   38.0413  -10.8400 H   0  0  0  0  0  0  0  0  0  0  0  0
   17.4086   40.1525  -11.9518 H   0  0  0  0  0  0  0  0  0  0  0  0
   19.1104   40.4531  -12.5781 H   0  0  0  0  0  0  0  0  0  0  0  0
   17.2002   42.0612  -10.1502 H   0  0  0  0  0  0  0  0  0  0  0  0
   15.1967   40.6767   -6.5838 H   0  0  0  0  0  0  0  0  0  0  0  0
   16.7796   38.7785   -6.4398 H   0  0  0  0  0  0  0  0  0  0  0  0
   18.5658   38.5066   -8.1448 H   0  0  0  0  0  0  0  0  0  0  0  0
   14.4400   42.6184   -7.6379 H   0  0  0  0  0  0  0  0  0  0  0  0
   16.4562   44.1112   -7.5490 H   0  0  0  0  0  0  0  0  0  0  0  0
   15.1139   44.8536   -8.4203 H   0  0  0  0  0  0  0  0  0  0  0  0
   16.4711   44.1740   -9.3106 H   0  0  0  0  0  0  0  0  0  0  0  0
   13.6896   41.5913   -9.7422 H   0  0  0  0  0  0  0  0  0  0  0  0
   14.8251   42.5889  -10.6595 H   0  0  0  0  0  0  0  0  0  0  0  0
   13.4876   43.3432   -9.7845 H   0  0  0  0  0  0  0  0  0  0  0  0
  1  2  1  0  0  0  0
  1 43  1  0  0  0  0
  1 44  1  0  0  0  0
  1 45  1  0  0  0  0
  2  3  1  0  0  0  0
  3  4  1  0  0  0  0
  3 46  1  0  0  0  0
  3 47  1  0  0  0  0
  4  9  1  0  0  0  0
  4  5  2  0  0  0  0
  5  6  1  0  0  0  0
  5 48  1  0  0  0  0
  6 24  1  0  0  0  0
  6  7  2  0  0  0  0
  7  8  1  0  0  0  0
  7 49  1  0  0  0  0
  8  9  2  0  0  0  0
  8 10  1  0  0  0  0
  9 50  1  0  0  0  0
 10 11  2  0  0  0  0
 10 12  1  0  0  0  0
 12 13  1  0  0  0  0
 12 51  1  0  0  0  0
 13 41  1  1  0  0  0
 13 14  1  0  0  0  0
 13 25  1  0  0  0  0
 14 15  1  0  0  0  0
 14 52  1  0  0  0  0
 14 53  1  0  0  0  0
 15 16  1  0  0  0  0
 15 17  2  0  0  0  0
 16 54  1  0  0  0  0
 16 55  1  0  0  0  0
 16 56  1  0  0  0  0
 17 18  1  0  0  0  0
 17 57  1  0  0  0  0
 18 19  1  0  0  0  0
 18 58  1  0  0  0  0
 18 59  1  0  0  0  0
 19 20  1  0  0  0  0
 20 21  1  0  0  0  0
 20 60  1  0  0  0  0
 20 61  1  0  0  0  0
 21 22  1  0  0  0  0
 21 62  1  0  0  0  0
 21 63  1  0  0  0  0
 22 23  1  0  0  0  0
 22 64  1  0  0  0  0
 22 65  1  0  0  0  0
 23 24  1  0  0  0  0
 23 66  1  0  0  0  0
 23 67  1  0  0  0  0
 24 68  1  0  0  0  0
 25 42  1  6  0  0  0
 25 26  1  0  0  0  0
 25 27  1  0  0  0  0
 26 69  1  0  0  0  0
 27 28  1  0  0  0  0
 27 70  1  0  0  0  0
 27 71  1  0  0  0  0
 28 29  1  0  0  0  0
 28 72  1  0  0  0  0
 29 31  1  0  0  0  0
 29 30  1  0  0  0  0
 29 32  1  0  0  0  0
 30 31  1  0  0  0  0
 30 73  1  0  0  0  0
 30 74  1  0  0  0  0
 31 75  1  0  0  0  0
 31 76  1  0  0  0  0
 32 37  1  0  0  0  0
 32 33  2  0  0  0  0
 33 34  1  0  0  0  0
 33 77  1  0  0  0  0
 34 35  2  0  0  0  0
 34 38  1  0  0  0  0
 35 36  1  0  0  0  0
 35 78  1  0  0  0  0
 36 37  2  0  0  0  0
 36 79  1  0  0  0  0
 37 80  1  0  0  0  0
 38 39  1  0  0  0  0
 38 40  1  0  0  0  0
 38 81  1  0  0  0  0
 39 82  1  0  0  0  0
 39 83  1  0  0  0  0
 39 84  1  0  0  0  0
 40 85  1  0  0  0  0
 40 86  1  0  0  0  0
 40 87  1  0  0  0  0
M  END
>  <s_m_source_file>
BACE_77.smi

>  <i_m_source_file_index>
1

>  <i_lp_mmshare_version>
42013

>  <i_f3d_flags>
0

>  <s_epik_input>
W2NIXTFbY0hdW2NIXWMoW0NIXShbQ0gzXSlbQ0gzXSlbY0hdYzFDMihbQ0gyXVtDSDJdMilbTkhdW0NIMl1bQ0BASF0oW09IXSlbQ0BASF0oW05IXUMoPU8pYyhbY0hdMylbY0hdYyhbY0hdYzM0KVtDSDJdT1tDSDNdKVtDSDJdL0MoW0NIM10pPVtDSF1cW0NIMl1PW0NIMl1bQ0gyXVtDSDJdW0NIMl1bTkhdNA==

>  <s_epik_cmdline>
J2VwaWtfcHl0aG9uJywgJy1waCcsICc3LjAnLCAnLXRuJywgJzgnLCAnLW1hJywgJzIwMCcsICctaW1hZScsICc8aW5maWxlLm1hZT4nLCAnLW9tYWUnLCAnPG91dGZpbGUubWFlPic=

>  <r_epik_Ionization_Penalty>
0.3295

>  <r_epik_Ionization_Penalty_Charging>
0.0000

>  <r_epik_Ionization_Penalty_Neutral>
0.3295

>  <r_epik_State_Penalty>
0.3241

>  <r_epik_Charging_Adjusted_Penalty>
0.324119

>  <i_epik_Tot_Q>
0

>  <i_epik_Tot_abs_Q>
0

>  <s_lp_Force_Field>
OPLS_2005

>  <r_lp_Energy>
48.4108

>  <b_lp_Chiralities_Consistent>
1

>  <s_lp_Variant>
BACE_77.smi:1-1

>  <chiral flag>
1

>  <version>
0

>  <s_i_glide_gridfile>
second_dock_grid_2

>  <i_i_glide_lignum>
154

>  <i_i_glide_rotatable_bonds>
9

>  <r_i_docking_score>
-3.14869

>  <r_i_glide_ligand_efficiency>
-0.0787172

>  <r_i_glide_ligand_efficiency_sa>
-0.269209

>  <r_i_glide_ligand_efficiency_ln>
-0.671523

>  <r_glide_XP_GScore>
-3.47279

>  <r_i_glide_gscore>
-3.47279

>  <r_i_glide_evdw>
-41.4671

>  <r_i_glide_ecoul>
-6.0034

>  <r_i_glide_energy>
-47.4705

>  <r_i_glide_einternal>
12.4273

>  <r_i_glide_emodel>
-61.5889

>  <r_glide_XP_HBond>
-1.58359

>  <i_i_glide_confnum>
1

>  <i_i_glide_posenum>
16

>  <r_i_glide_eff_state_penalty>
0.3241

>  <i_glide_XP_PoseRank>
1

$$$$
