BACE_140.smi:1
 OpenBabel09291822493D
Structure written by MMmdl.
 83 87  0  0  1  0  0  0  0  0999 V2000
   16.1912   46.7591  -10.5029 C   0  0  0  0  0  0  0  0  0  0  0  0
   17.2692   47.4731  -11.0849 O   0  0  0  0  0  0  0  0  0  0  0  0
   18.4912   47.3000  -10.3838 C   0  0  0  0  0  0  0  0  0  0  0  0
   18.7326   45.8438  -10.0273 C   0  0  0  0  0  0  0  0  0  0  0  0
   18.4721   44.8349  -10.9770 C   0  0  0  0  0  0  0  0  0  0  0  0
   18.6697   43.4732  -10.6686 C   0  0  0  0  0  0  0  0  0  0  0  0
   19.1540   43.1337   -9.3783 C   0  0  0  0  0  0  0  0  0  0  0  0
   19.4112   44.1341   -8.4102 C   0  0  0  0  0  0  0  0  0  0  0  0
   19.1876   45.4885   -8.7409 C   0  0  0  0  0  0  0  0  0  0  0  0
   19.8475   43.7643   -7.0190 C   0  0  0  0  0  0  0  0  0  0  0  0
   19.3735   44.3442   -6.0408 O   0  0  0  0  0  0  0  0  0  0  0  0
   20.7821   42.7970   -6.9392 N   0  0  0  0  0  0  0  0  0  0  0  0
   21.2908   42.1630   -5.7142 C   0  0  1  0  0  0  0  0  0  0  0  0
   21.7583   40.6989   -5.9742 C   0  0  0  0  0  0  0  0  0  0  0  0
   20.9043   39.9156   -6.9654 C   0  0  0  0  0  0  0  0  0  0  0  0
   21.3465   39.7384   -8.2944 C   0  0  0  0  0  0  0  0  0  0  0  0
   20.5481   39.0656   -9.2416 C   0  0  0  0  0  0  0  0  0  0  0  0
   19.3107   38.5146   -8.8311 C   0  0  0  0  0  0  0  0  0  0  0  0
   18.8768   38.6627   -7.4986 C   0  0  0  0  0  0  0  0  0  0  0  0
   19.6672   39.3656   -6.5684 C   0  0  0  0  0  0  0  0  0  0  0  0
   21.0448   38.9539  -10.5206 O   0  0  0  0  0  0  0  0  0  0  0  0
   20.1640   39.1869  -11.6187 C   0  0  0  0  0  0  0  0  0  0  0  0
   19.9126   40.6951  -11.8381 C   0  0  0  0  0  0  0  0  0  0  0  0
   18.4974   41.1650  -11.4503 C   0  0  0  0  0  0  0  0  0  0  0  0
   18.3476   42.5680  -11.6634 O   0  0  0  0  0  0  0  0  0  0  0  0
   22.3446   43.0695   -5.0056 C   0  0  2  0  0  0  0  0  0  0  0  0
   22.0043   43.2369   -3.6421 O   0  0  0  0  0  0  0  0  0  0  0  0
   22.4904   44.4817   -5.6124 C   0  0  0  0  0  0  0  0  0  0  0  0
   23.2565   45.3741   -4.7391 N   0  0  0  0  0  0  0  0  0  0  0  0
   23.7489   46.6093   -5.3682 C   0  0  0  0  0  0  0  0  0  0  0  0
   23.7642   46.6676   -6.8770 C   0  0  0  0  0  0  0  0  0  0  0  0
   25.0605   46.5399   -6.1131 C   0  0  0  0  0  0  0  0  0  0  0  0
   23.4324   47.8943   -4.6164 C   0  0  0  0  0  0  0  0  0  0  0  0
   24.2133   48.3017   -3.5103 C   0  0  0  0  0  0  0  0  0  0  0  0
   23.9241   49.4977   -2.8123 C   0  0  0  0  0  0  0  0  0  0  0  0
   22.8372   50.2938   -3.2349 C   0  0  0  0  0  0  0  0  0  0  0  0
   22.0556   49.9004   -4.3371 C   0  0  0  0  0  0  0  0  0  0  0  0
   22.3529   48.7084   -5.0241 C   0  0  0  0  0  0  0  0  0  0  0  0
   24.7684   49.9351   -1.6165 C   0  0  0  0  0  0  0  0  0  0  0  0
   24.8855   51.4667   -1.5203 C   0  0  0  0  0  0  0  0  0  0  0  0
   24.2709   49.3142   -0.2991 C   0  0  0  0  0  0  0  0  0  0  0  0
   20.4243   42.0790   -5.0562 H   0  0  0  0  0  0  0  0  0  0  0  0
   23.3255   42.5934   -5.0278 H   0  0  0  0  0  0  0  0  0  0  0  0
   15.2851   46.9300  -11.0841 H   0  0  0  0  0  0  0  0  0  0  0  0
   15.9998   47.0902   -9.4813 H   0  0  0  0  0  0  0  0  0  0  0  0
   16.3841   45.6855  -10.4934 H   0  0  0  0  0  0  0  0  0  0  0  0
   18.4775   47.8811   -9.4601 H   0  0  0  0  0  0  0  0  0  0  0  0
   19.3189   47.6771  -10.9868 H   0  0  0  0  0  0  0  0  0  0  0  0
   18.1036   45.1052  -11.9562 H   0  0  0  0  0  0  0  0  0  0  0  0
   19.3131   42.1038   -9.1025 H   0  0  0  0  0  0  0  0  0  0  0  0
   19.3694   46.2613   -8.0075 H   0  0  0  0  0  0  0  0  0  0  0  0
   21.1230   42.4134   -7.8091 H   0  0  0  0  0  0  0  0  0  0  0  0
   21.7857   40.1453   -5.0350 H   0  0  0  0  0  0  0  0  0  0  0  0
   22.7822   40.6836   -6.3481 H   0  0  0  0  0  0  0  0  0  0  0  0
   22.2957   40.1498   -8.6064 H   0  0  0  0  0  0  0  0  0  0  0  0
   18.6885   37.9622   -9.5186 H   0  0  0  0  0  0  0  0  0  0  0  0
   17.9325   38.2386   -7.1900 H   0  0  0  0  0  0  0  0  0  0  0  0
   19.3186   39.4830   -5.5526 H   0  0  0  0  0  0  0  0  0  0  0  0
   19.2378   38.6154  -11.5668 H   0  0  0  0  0  0  0  0  0  0  0  0
   20.6828   38.7989  -12.4959 H   0  0  0  0  0  0  0  0  0  0  0  0
   20.0571   40.9197  -12.8957 H   0  0  0  0  0  0  0  0  0  0  0  0
   20.6715   41.2774  -11.3148 H   0  0  0  0  0  0  0  0  0  0  0  0
   18.2069   40.8553  -10.4477 H   0  0  0  0  0  0  0  0  0  0  0  0
   17.7803   40.6739  -12.1089 H   0  0  0  0  0  0  0  0  0  0  0  0
   21.5594   44.0648   -3.5436 H   0  0  0  0  0  0  0  0  0  0  0  0
   21.4962   44.9019   -5.7691 H   0  0  0  0  0  0  0  0  0  0  0  0
   22.9507   44.4215   -6.5985 H   0  0  0  0  0  0  0  0  0  0  0  0
   24.0216   44.8756   -4.2960 H   0  0  0  0  0  0  0  0  0  0  0  0
   23.4097   45.7913   -7.4197 H   0  0  0  0  0  0  0  0  0  0  0  0
   23.5479   47.6268   -7.3474 H   0  0  0  0  0  0  0  0  0  0  0  0
   25.7108   47.4137   -6.0728 H   0  0  0  0  0  0  0  0  0  0  0  0
   25.5726   45.5782   -6.1451 H   0  0  0  0  0  0  0  0  0  0  0  0
   25.0453   47.6879   -3.1978 H   0  0  0  0  0  0  0  0  0  0  0  0
   22.5948   51.2118   -2.7196 H   0  0  0  0  0  0  0  0  0  0  0  0
   21.2266   50.5145   -4.6568 H   0  0  0  0  0  0  0  0  0  0  0  0
   21.7449   48.4199   -5.8693 H   0  0  0  0  0  0  0  0  0  0  0  0
   25.7795   49.5572   -1.7739 H   0  0  0  0  0  0  0  0  0  0  0  0
   25.2983   51.8869   -2.4381 H   0  0  0  0  0  0  0  0  0  0  0  0
   25.5475   51.7581   -0.7043 H   0  0  0  0  0  0  0  0  0  0  0  0
   23.9200   51.9410   -1.3422 H   0  0  0  0  0  0  0  0  0  0  0  0
   24.2530   48.2255   -0.3607 H   0  0  0  0  0  0  0  0  0  0  0  0
   23.2657   49.6493   -0.0421 H   0  0  0  0  0  0  0  0  0  0  0  0
   24.9257   49.5808    0.5311 H   0  0  0  0  0  0  0  0  0  0  0  0
  1  2  1  0  0  0  0
  1 44  1  0  0  0  0
  1 45  1  0  0  0  0
  1 46  1  0  0  0  0
  2  3  1  0  0  0  0
  3  4  1  0  0  0  0
  3 47  1  0  0  0  0
  3 48  1  0  0  0  0
  4  9  1  0  0  0  0
  4  5  2  0  0  0  0
  5  6  1  0  0  0  0
  5 49  1  0  0  0  0
  6 25  1  0  0  0  0
  6  7  2  0  0  0  0
  7  8  1  0  0  0  0
  7 50  1  0  0  0  0
  8  9  2  0  0  0  0
  8 10  1  0  0  0  0
  9 51  1  0  0  0  0
 10 11  2  0  0  0  0
 10 12  1  0  0  0  0
 12 13  1  0  0  0  0
 12 52  1  0  0  0  0
 13 42  1  1  0  0  0
 13 14  1  0  0  0  0
 13 26  1  0  0  0  0
 14 15  1  0  0  0  0
 14 53  1  0  0  0  0
 14 54  1  0  0  0  0
 15 20  1  0  0  0  0
 15 16  2  0  0  0  0
 16 17  1  0  0  0  0
 16 55  1  0  0  0  0
 17 18  2  0  0  0  0
 17 21  1  0  0  0  0
 18 19  1  0  0  0  0
 18 56  1  0  0  0  0
 19 20  2  0  0  0  0
 19 57  1  0  0  0  0
 20 58  1  0  0  0  0
 21 22  1  0  0  0  0
 22 23  1  0  0  0  0
 22 59  1  0  0  0  0
 22 60  1  0  0  0  0
 23 24  1  0  0  0  0
 23 61  1  0  0  0  0
 23 62  1  0  0  0  0
 24 25  1  0  0  0  0
 24 63  1  0  0  0  0
 24 64  1  0  0  0  0
 26 43  1  6  0  0  0
 26 27  1  0  0  0  0
 26 28  1  0  0  0  0
 27 65  1  0  0  0  0
 28 29  1  0  0  0  0
 28 66  1  0  0  0  0
 28 67  1  0  0  0  0
 29 30  1  0  0  0  0
 29 68  1  0  0  0  0
 30 32  1  0  0  0  0
 30 31  1  0  0  0  0
 30 33  1  0  0  0  0
 31 32  1  0  0  0  0
 31 69  1  0  0  0  0
 31 70  1  0  0  0  0
 32 71  1  0  0  0  0
 32 72  1  0  0  0  0
 33 38  1  0  0  0  0
 33 34  2  0  0  0  0
 34 35  1  0  0  0  0
 34 73  1  0  0  0  0
 35 36  2  0  0  0  0
 35 39  1  0  0  0  0
 36 37  1  0  0  0  0
 36 74  1  0  0  0  0
 37 38  2  0  0  0  0
 37 75  1  0  0  0  0
 38 76  1  0  0  0  0
 39 40  1  0  0  0  0
 39 41  1  0  0  0  0
 39 77  1  0  0  0  0
 40 78  1  0  0  0  0
 40 79  1  0  0  0  0
 40 80  1  0  0  0  0
 41 81  1  0  0  0  0
 41 82  1  0  0  0  0
 41 83  1  0  0  0  0
M  END
>  <s_m_source_file>
BACE_140.smi

>  <i_m_source_file_index>
1

>  <i_lp_mmshare_version>
42013

>  <i_f3d_flags>
0

>  <s_epik_input>
TzFbQ0gyXVtDSDJdW0NIMl1PYyhbY0hdW2NIXVtjSF0yKVtjSF1jMltDSDJdW0NASF0oW05IXUMoPU8pYyhbY0hdMylbY0hdYyhbY0hdYzEzKVtDSDJdT1tDSDNdKVtDQEhdKFtPSF0pW0NIMl1bTkhdQzQoW0NIMl1bQ0gyXTQpYzVbY0hdYyhbQ0hdKFtDSDNdKVtDSDNdKVtjSF1bY0hdW2NIXTU=

>  <s_epik_cmdline>
J2VwaWtfcHl0aG9uJywgJy1waCcsICc3LjAnLCAnLXRuJywgJzgnLCAnLW1hJywgJzIwMCcsICctaW1hZScsICc8aW5maWxlLm1hZT4nLCAnLW9tYWUnLCAnPG91dGZpbGUubWFlPic=

>  <r_lp_tautomer_probability>
1

>  <r_epik_Ionization_Penalty>
0.3229

>  <r_epik_Ionization_Penalty_Charging>
0.0000

>  <r_epik_Ionization_Penalty_Neutral>
0.3229

>  <r_epik_State_Penalty>
0.3176

>  <r_epik_Charging_Adjusted_Penalty>
0.317604

>  <i_epik_Tot_Q>
0

>  <i_epik_Tot_abs_Q>
0

>  <s_lp_Force_Field>
OPLS_2005

>  <r_lp_Energy>
55.3845

>  <b_lp_Chiralities_Consistent>
1

>  <s_lp_Variant>
BACE_140.smi:1-1

>  <chiral flag>
1

>  <version>
0

>  <s_i_glide_gridfile>
second_dock_grid_2

>  <i_i_glide_lignum>
287

>  <i_i_glide_rotatable_bonds>
9

>  <r_i_docking_score>
-4.92435

>  <r_i_glide_ligand_efficiency>
-0.120106

>  <r_i_glide_ligand_efficiency_sa>
-0.414152

>  <r_i_glide_ligand_efficiency_ln>
-1.04472

>  <r_glide_XP_GScore>
-5.24195

>  <r_i_glide_gscore>
-5.24195

>  <r_i_glide_evdw>
-42.0874

>  <r_i_glide_ecoul>
-8.27922

>  <r_i_glide_energy>
-50.3666

>  <r_i_glide_einternal>
4.35643

>  <r_i_glide_emodel>
-71.5713

>  <r_glide_XP_HBond>
-1.07365

>  <i_i_glide_confnum>
1

>  <i_i_glide_posenum>
10

>  <r_i_glide_eff_state_penalty>
0.3176

>  <i_glide_XP_PoseRank>
1

$$$$
