BACE_31.smi:1
 OpenBabel09291822493D
Structure written by MMmdl.
 92 93  0  0  1  0  0  0  0  0999 V2000
   19.1669   40.0651  -10.8793 C   0  0  0  0  0  0  0  0  0  0  0  0
   20.3700   39.6056  -10.0608 C   0  0  2  0  0  0  0  0  0  0  0  0
   20.1371   38.1753   -9.5279 C   0  0  0  0  0  0  0  0  0  0  0  0
   18.8202   37.9669   -8.7491 C   0  0  0  0  0  0  0  0  0  0  0  0
   17.5614   37.9883   -9.6401 C   0  0  0  0  0  0  0  0  0  0  0  0
   16.2502   37.6680   -8.8901 C   0  0  0  0  0  0  0  0  0  0  0  0
   15.8245   38.6930   -7.8131 C   0  0  0  0  0  0  0  0  0  0  0  0
   15.6913   40.1525   -8.2964 C   0  0  0  0  0  0  0  0  0  0  0  0
   14.6367   40.3634   -9.4073 C   0  0  0  0  0  0  0  0  0  0  0  0
   14.5472   41.8204   -9.9260 C   0  0  0  0  0  0  0  0  0  0  0  0
   15.8165   42.3015  -10.6378 C   0  0  0  0  0  0  0  0  0  0  0  0
   16.2327   41.6901  -11.6080 O   0  0  0  0  0  0  0  0  0  0  0  0
   16.4177   43.3824  -10.1204 N   0  0  0  0  0  0  0  0  0  0  0  0
   15.8083   43.9951   -8.9573 C   0  0  0  0  0  0  0  0  0  0  0  0
   17.7685   43.8089  -10.5423 C   0  0  1  0  0  0  0  0  0  0  0  0
   17.8545   45.3299  -10.4551 C   0  0  0  0  0  0  0  0  0  0  0  0
   18.8365   43.2280   -9.5895 C   0  0  0  0  0  0  0  0  0  0  0  0
   18.7111   43.3048   -8.3784 O   0  0  0  0  0  0  0  0  0  0  0  0
   19.9115   42.6770  -10.1687 N   0  0  0  0  0  0  0  0  0  0  0  0
   21.0391   42.0482   -9.4755 C   0  0  1  0  0  0  0  0  0  0  0  0
   20.6912   40.6364   -8.9559 C   0  0  0  0  0  0  0  0  0  0  0  0
   22.2300   41.9631  -10.4259 C   0  0  2  0  0  0  0  0  0  0  0  0
   21.8156   41.4913  -11.6958 O   0  0  0  0  0  0  0  0  0  0  0  0
   23.3609   41.0425   -9.9157 C   0  0  0  0  0  0  0  0  0  0  0  0
   24.6819   41.4856  -10.4311 N   0  3  0  0  0  0  0  0  0  0  0  0
   25.1291   42.8857  -10.1669 C   0  0  0  0  0  0  0  0  0  0  0  0
   24.4837   43.8602  -11.1790 C   0  0  0  0  0  0  0  0  0  0  0  0
   24.8218   43.2811   -8.7042 C   0  0  0  0  0  0  0  0  0  0  0  0
   26.6332   42.8136  -10.3894 C   0  0  0  0  0  0  0  0  0  0  0  0
   27.4764   43.5930   -9.6943 N   0  0  0  0  0  0  0  0  0  0  0  0
   28.8090   43.3943  -10.0286 N   0  0  0  0  0  0  0  0  0  0  0  0
   28.9671   42.4604  -10.9722 C   0  0  0  0  0  0  0  0  0  0  0  0
   30.3112   42.0696  -11.5175 C   0  0  0  0  0  0  0  0  0  0  0  0
   30.7876   42.7807  -12.8217 C   0  0  0  0  0  0  0  0  0  0  0  0
   30.2692   44.2331  -12.9312 C   0  0  0  0  0  0  0  0  0  0  0  0
   32.3315   42.8156  -12.8212 C   0  0  0  0  0  0  0  0  0  0  0  0
   30.3228   41.9870  -14.0628 C   0  0  0  0  0  0  0  0  0  0  0  0
   27.4622   41.7484  -11.5423 S   0  0  0  0  0  0  0  0  0  0  0  0
   21.2048   39.5776  -10.7612 H   0  0  0  0  0  0  0  0  0  0  0  0
   17.9860   43.5580  -11.5805 H   0  0  0  0  0  0  0  0  0  0  0  0
   21.3689   42.6753   -8.6473 H   0  0  0  0  0  0  0  0  0  0  0  0
   22.6497   42.9607  -10.5625 H   0  0  0  0  0  0  0  0  0  0  0  0
   18.9269   39.3598  -11.6744 H   0  0  0  0  0  0  0  0  0  0  0  0
   19.3466   41.0246  -11.3628 H   0  0  0  0  0  0  0  0  0  0  0  0
   18.2767   40.1709  -10.2580 H   0  0  0  0  0  0  0  0  0  0  0  0
   20.1681   37.4741  -10.3618 H   0  0  0  0  0  0  0  0  0  0  0  0
   20.9763   37.8954   -8.8912 H   0  0  0  0  0  0  0  0  0  0  0  0
   18.7346   38.7075   -7.9539 H   0  0  0  0  0  0  0  0  0  0  0  0
   18.8696   37.0020   -8.2445 H   0  0  0  0  0  0  0  0  0  0  0  0
   17.4708   38.9497  -10.1457 H   0  0  0  0  0  0  0  0  0  0  0  0
   17.6852   37.2554  -10.4373 H   0  0  0  0  0  0  0  0  0  0  0  0
   16.3359   36.6851   -8.4268 H   0  0  0  0  0  0  0  0  0  0  0  0
   15.4470   37.5634   -9.6196 H   0  0  0  0  0  0  0  0  0  0  0  0
   14.8768   38.3739   -7.3793 H   0  0  0  0  0  0  0  0  0  0  0  0
   16.5387   38.6615   -6.9903 H   0  0  0  0  0  0  0  0  0  0  0  0
   16.6677   40.5058   -8.6278 H   0  0  0  0  0  0  0  0  0  0  0  0
   15.4354   40.7810   -7.4434 H   0  0  0  0  0  0  0  0  0  0  0  0
   14.8347   39.6989  -10.2483 H   0  0  0  0  0  0  0  0  0  0  0  0
   13.6602   40.0633   -9.0272 H   0  0  0  0  0  0  0  0  0  0  0  0
   14.2872   42.4886   -9.1050 H   0  0  0  0  0  0  0  0  0  0  0  0
   13.7283   41.9089  -10.6400 H   0  0  0  0  0  0  0  0  0  0  0  0
   16.2682   44.9392   -8.6715 H   0  0  0  0  0  0  0  0  0  0  0  0
   15.8629   43.3356   -8.0905 H   0  0  0  0  0  0  0  0  0  0  0  0
   14.7628   44.2417   -9.1467 H   0  0  0  0  0  0  0  0  0  0  0  0
   18.8295   45.6914  -10.7849 H   0  0  0  0  0  0  0  0  0  0  0  0
   17.6968   45.6908   -9.4382 H   0  0  0  0  0  0  0  0  0  0  0  0
   17.1063   45.8050  -11.0906 H   0  0  0  0  0  0  0  0  0  0  0  0
   19.9392   42.6778  -11.1783 H   0  0  0  0  0  0  0  0  0  0  0  0
   21.5365   40.2743   -8.3706 H   0  0  0  0  0  0  0  0  0  0  0  0
   19.8620   40.7075   -8.2521 H   0  0  0  0  0  0  0  0  0  0  0  0
   22.5848   41.2854  -12.2047 H   0  0  0  0  0  0  0  0  0  0  0  0
   23.3780   41.0769   -8.8270 H   0  0  0  0  0  0  0  0  0  0  0  0
   23.1617   40.0108  -10.2029 H   0  0  0  0  0  0  0  0  0  0  0  0
   25.3802   40.8682  -10.0423 H   0  0  0  0  0  0  0  0  0  0  0  0
   23.4064   43.9471  -11.0385 H   0  0  0  0  0  0  0  0  0  0  0  0
   24.6599   43.5429  -12.2079 H   0  0  0  0  0  0  0  0  0  0  0  0
   24.8869   44.8683  -11.0762 H   0  0  0  0  0  0  0  0  0  0  0  0
   23.7515   43.3547   -8.5124 H   0  0  0  0  0  0  0  0  0  0  0  0
   25.2436   44.2557   -8.4563 H   0  0  0  0  0  0  0  0  0  0  0  0
   25.2360   42.5587   -7.9993 H   0  0  0  0  0  0  0  0  0  0  0  0
   31.0299   42.2699  -10.7216 H   0  0  0  0  0  0  0  0  0  0  0  0
   30.3306   40.9863  -11.6472 H   0  0  0  0  0  0  0  0  0  0  0  0
   29.1838   44.2790  -13.0237 H   0  0  0  0  0  0  0  0  0  0  0  0
   30.6784   44.7350  -13.8090 H   0  0  0  0  0  0  0  0  0  0  0  0
   30.5545   44.8263  -12.0616 H   0  0  0  0  0  0  0  0  0  0  0  0
   32.7543   41.8127  -12.7480 H   0  0  0  0  0  0  0  0  0  0  0  0
   32.7216   43.3948  -11.9831 H   0  0  0  0  0  0  0  0  0  0  0  0
   32.7248   43.2662  -13.7334 H   0  0  0  0  0  0  0  0  0  0  0  0
   30.6832   40.9577  -14.0415 H   0  0  0  0  0  0  0  0  0  0  0  0
   30.6909   42.4373  -14.9856 H   0  0  0  0  0  0  0  0  0  0  0  0
   29.2360   41.9505  -14.1387 H   0  0  0  0  0  0  0  0  0  0  0  0
   24.6741   41.3545  -11.4325 H   0  0  0  0  0  0  0  0  0  0  0  0
  1  2  1  0  0  0  0
  1 43  1  0  0  0  0
  1 44  1  0  0  0  0
  1 45  1  0  0  0  0
  2 39  1  6  0  0  0
  2 21  1  0  0  0  0
  2  3  1  0  0  0  0
  3  4  1  0  0  0  0
  3 46  1  0  0  0  0
  3 47  1  0  0  0  0
  4  5  1  0  0  0  0
  4 48  1  0  0  0  0
  4 49  1  0  0  0  0
  5  6  1  0  0  0  0
  5 50  1  0  0  0  0
  5 51  1  0  0  0  0
  6  7  1  0  0  0  0
  6 52  1  0  0  0  0
  6 53  1  0  0  0  0
  7  8  1  0  0  0  0
  7 54  1  0  0  0  0
  7 55  1  0  0  0  0
  8  9  1  0  0  0  0
  8 56  1  0  0  0  0
  8 57  1  0  0  0  0
  9 10  1  0  0  0  0
  9 58  1  0  0  0  0
  9 59  1  0  0  0  0
 10 11  1  0  0  0  0
 10 60  1  0  0  0  0
 10 61  1  0  0  0  0
 11 12  2  0  0  0  0
 11 13  1  0  0  0  0
 13 14  1  0  0  0  0
 13 15  1  0  0  0  0
 14 62  1  0  0  0  0
 14 63  1  0  0  0  0
 14 64  1  0  0  0  0
 15 40  1  6  0  0  0
 15 16  1  0  0  0  0
 15 17  1  0  0  0  0
 16 65  1  0  0  0  0
 16 66  1  0  0  0  0
 16 67  1  0  0  0  0
 17 18  2  0  0  0  0
 17 19  1  0  0  0  0
 19 20  1  0  0  0  0
 19 68  1  0  0  0  0
 20 41  1  1  0  0  0
 20 21  1  0  0  0  0
 20 22  1  0  0  0  0
 21 69  1  0  0  0  0
 21 70  1  0  0  0  0
 22 42  1  6  0  0  0
 22 23  1  0  0  0  0
 22 24  1  0  0  0  0
 23 71  1  0  0  0  0
 24 25  1  0  0  0  0
 24 72  1  0  0  0  0
 24 73  1  0  0  0  0
 25 26  1  0  0  0  0
 25 74  1  0  0  0  0
 25 92  1  0  0  0  0
 26 27  1  0  0  0  0
 26 28  1  0  0  0  0
 26 29  1  0  0  0  0
 27 75  1  0  0  0  0
 27 76  1  0  0  0  0
 27 77  1  0  0  0  0
 28 78  1  0  0  0  0
 28 79  1  0  0  0  0
 28 80  1  0  0  0  0
 29 38  1  0  0  0  0
 29 30  2  0  0  0  0
 30 31  1  0  0  0  0
 31 32  2  0  0  0  0
 32 33  1  0  0  0  0
 32 38  1  0  0  0  0
 33 34  1  0  0  0  0
 33 81  1  0  0  0  0
 33 82  1  0  0  0  0
 34 35  1  0  0  0  0
 34 36  1  0  0  0  0
 34 37  1  0  0  0  0
 35 83  1  0  0  0  0
 35 84  1  0  0  0  0
 35 85  1  0  0  0  0
 36 86  1  0  0  0  0
 36 87  1  0  0  0  0
 36 88  1  0  0  0  0
 37 89  1  0  0  0  0
 37 90  1  0  0  0  0
 37 91  1  0  0  0  0
M  CHG  1  25   1
M  END
>  <s_m_source_file>
BACE_31.smi

>  <i_m_source_file_index>
1

>  <i_lp_mmshare_version>
42013

>  <i_f3d_flags>
0

>  <s_epik_input>
W0NIM11bQ0BASF0xW0NIMl1bQ0gyXVtDSDJdW0NIMl1bQ0gyXVtDSDJdW0NIMl1bQ0gyXUMoPU8pTihbQ0gzXSlbQ0BASF0oW0NIM10pQyg9TylbTkhdW0NAQEhdKFtDSDJdMSlbQ0BIXShbT0hdKVtDSDJdW05IXUMoW0NIM10pKFtDSDNdKWMybm5jKHMyKVtDSDJdQyhbQ0gzXSkoW0NIM10pW0NIM10=

>  <s_epik_cmdline>
J2VwaWtfcHl0aG9uJywgJy1waCcsICc3LjAnLCAnLXRuJywgJzgnLCAnLW1hJywgJzIwMCcsICctaW1hZScsICc8aW5maWxlLm1hZT4nLCAnLW9tYWUnLCAnPG91dGZpbGUubWFlPic=

>  <r_lp_tautomer_probability>
1

>  <r_epik_Ionization_Penalty>
0.1347

>  <r_epik_Ionization_Penalty_Charging>
0.1347

>  <r_epik_Ionization_Penalty_Neutral>
0.0000

>  <r_epik_State_Penalty>
0.1240

>  <r_epik_Charging_Adjusted_Penalty>
0.25873

>  <i_epik_Tot_Q>
1

>  <i_epik_Tot_abs_Q>
1

>  <s_lp_Force_Field>
OPLS_2005

>  <r_lp_Energy>
28.8396

>  <b_lp_Chiralities_Consistent>
1

>  <s_lp_Variant>
BACE_31.smi:1-1

>  <chiral flag>
1

>  <version>
0

>  <s_i_glide_gridfile>
second_dock_grid_2

>  <i_i_glide_lignum>
53

>  <i_i_glide_rotatable_bonds>
8

>  <r_i_docking_score>
-4.89933

>  <r_i_glide_ligand_efficiency>
-0.12893

>  <r_i_glide_ligand_efficiency_sa>
-0.433459

>  <r_i_glide_ligand_efficiency_ln>
-1.05644

>  <r_glide_XP_GScore>
-5.02333

>  <r_i_glide_gscore>
-5.02333

>  <r_i_glide_evdw>
-37.7421

>  <r_i_glide_ecoul>
-10.5318

>  <r_i_glide_energy>
-48.2739

>  <r_i_glide_einternal>
12.2671

>  <r_i_glide_emodel>
-63.8533

>  <r_glide_XP_HBond>
-1.30873

>  <i_i_glide_confnum>
1

>  <i_i_glide_posenum>
2

>  <r_i_glide_eff_state_penalty>
0.124

>  <i_glide_XP_PoseRank>
1

$$$$
