BACE_119.smi:1
 OpenBabel09291822493D
Structure written by MMmdl.
 88 93  0  0  1  0  0  0  0  0999 V2000
   27.7259   46.3689   -9.3853 C   0  0  0  0  0  0  0  0  0  0  0  0
   28.2058   45.0641   -8.7167 C   0  0  0  0  0  0  0  0  0  0  0  0
   27.7332   45.0540   -7.2483 C   0  0  0  0  0  0  0  0  0  0  0  0
   29.7487   45.0653   -8.7165 C   0  0  0  0  0  0  0  0  0  0  0  0
   27.6153   43.8627   -9.4805 C   0  0  0  0  0  0  0  0  0  0  0  0
   26.2137   43.6745   -9.5319 C   0  0  0  0  0  0  0  0  0  0  0  0
   25.6847   42.5960  -10.2692 C   0  0  0  0  0  0  0  0  0  0  0  0
   26.4610   41.7074  -10.9241 N   0  0  0  0  0  0  0  0  0  0  0  0
   27.7968   41.8800  -10.8865 C   0  0  0  0  0  0  0  0  0  0  0  0
   28.4173   42.9328  -10.1846 C   0  0  0  0  0  0  0  0  0  0  0  0
   24.2160   42.3425  -10.3993 C   0  0  0  0  0  0  0  0  0  0  0  0
   23.4955   42.7867  -11.6597 C   0  0  0  0  0  0  0  0  0  0  0  0
   23.1416   43.4215  -10.3395 C   0  0  0  0  0  0  0  0  0  0  0  0
   23.8506   40.9504  -10.0466 N   0  3  0  0  0  0  0  0  0  0  0  0
   22.9046   40.7298   -8.9273 C   0  0  0  0  0  0  0  0  0  0  0  0
   21.6824   39.9346   -9.4428 C   0  0  1  0  0  0  0  0  0  0  0  0
   22.0601   38.5720   -9.4048 O   0  0  0  0  0  0  0  0  0  0  0  0
   20.3301   40.0690   -8.6798 C   0  0  2  0  0  0  0  0  0  0  0  0
   19.2201   39.2992   -9.4470 C   0  0  0  0  0  0  0  0  0  0  0  0
   17.7955   39.5390   -8.9748 C   0  0  0  0  0  0  0  0  0  0  0  0
   17.0487   40.6240   -9.4833 C   0  0  0  0  0  0  0  0  0  0  0  0
   15.7234   40.8367   -9.0520 C   0  0  0  0  0  0  0  0  0  0  0  0
   14.9433   42.0360   -9.5402 C   0  0  0  0  0  0  0  0  0  0  0  0
   14.7787   43.0942   -8.4401 C   0  0  0  0  0  0  0  0  0  0  0  0
   14.6848   44.5130   -9.0094 C   0  0  0  0  0  0  0  0  0  0  0  0
   16.0452   45.0848   -9.4461 C   0  0  0  0  0  0  0  0  0  0  0  0
   16.7264   45.7545   -8.3483 N   0  0  0  0  0  0  0  0  0  0  0  0
   17.9563   45.3113   -7.8420 C   0  0  0  0  0  0  0  0  0  0  0  0
   18.4146   43.9705   -7.9089 C   0  0  0  0  0  0  0  0  0  0  0  0
   19.6700   43.6132   -7.3547 C   0  0  0  0  0  0  0  0  0  0  0  0
   20.4545   44.6093   -6.7270 C   0  0  0  0  0  0  0  0  0  0  0  0
   20.0112   45.9483   -6.6675 C   0  0  0  0  0  0  0  0  0  0  0  0
   18.7588   46.2837   -7.2166 C   0  0  0  0  0  0  0  0  0  0  0  0
   20.8300   46.9815   -6.0399 C   0  0  0  0  0  0  0  0  0  0  0  0
   22.0880   46.9033   -5.6074 N   0  0  0  0  0  0  0  0  0  0  0  0
   22.3799   48.1617   -5.1038 C   0  0  0  0  0  0  0  0  0  0  0  0
   21.2649   48.9439   -5.2431 C   0  0  0  0  0  0  0  0  0  0  0  0
   20.2763   48.2112   -5.8368 O   0  0  0  0  0  0  0  0  0  0  0  0
   20.1696   42.1919   -7.3626 C   0  0  0  0  0  0  0  0  0  0  0  0
   20.8538   41.7699   -6.4303 O   0  0  0  0  0  0  0  0  0  0  0  0
   19.9324   41.4720   -8.4725 N   0  0  0  0  0  0  0  0  0  0  0  0
   15.1353   39.9480   -8.1333 C   0  0  0  0  0  0  0  0  0  0  0  0
   15.8705   38.8608   -7.6397 C   0  0  0  0  0  0  0  0  0  0  0  0
   17.2012   38.6543   -8.0506 C   0  0  0  0  0  0  0  0  0  0  0  0
   21.5081   40.2128  -10.4861 H   0  0  0  0  0  0  0  0  0  0  0  0
   20.4277   39.6004   -7.6952 H   0  0  0  0  0  0  0  0  0  0  0  0
   28.0369   46.4044  -10.4294 H   0  0  0  0  0  0  0  0  0  0  0  0
   28.1379   47.2502   -8.8886 H   0  0  0  0  0  0  0  0  0  0  0  0
   26.6408   46.4707   -9.3644 H   0  0  0  0  0  0  0  0  0  0  0  0
   28.0593   44.1482   -6.7360 H   0  0  0  0  0  0  0  0  0  0  0  0
   26.6495   45.1121   -7.1585 H   0  0  0  0  0  0  0  0  0  0  0  0
   28.1424   45.9055   -6.7002 H   0  0  0  0  0  0  0  0  0  0  0  0
   30.1565   44.1622   -8.2610 H   0  0  0  0  0  0  0  0  0  0  0  0
   30.1415   45.9136   -8.1537 H   0  0  0  0  0  0  0  0  0  0  0  0
   30.1511   45.1471   -9.7273 H   0  0  0  0  0  0  0  0  0  0  0  0
   25.5469   44.3580   -9.0245 H   0  0  0  0  0  0  0  0  0  0  0  0
   28.3891   41.1593  -11.4352 H   0  0  0  0  0  0  0  0  0  0  0  0
   29.4924   43.0052  -10.2176 H   0  0  0  0  0  0  0  0  0  0  0  0
   24.0496   43.3946  -12.3738 H   0  0  0  0  0  0  0  0  0  0  0  0
   22.7231   42.1484  -12.0933 H   0  0  0  0  0  0  0  0  0  0  0  0
   22.1429   43.1964   -9.9718 H   0  0  0  0  0  0  0  0  0  0  0  0
   23.4630   44.4513  -10.1836 H   0  0  0  0  0  0  0  0  0  0  0  0
   23.4732   40.5437  -10.8896 H   0  0  0  0  0  0  0  0  0  0  0  0
   23.4090   40.1856   -8.1275 H   0  0  0  0  0  0  0  0  0  0  0  0
   22.6222   41.6802   -8.4830 H   0  0  0  0  0  0  0  0  0  0  0  0
   22.9727   38.4828   -9.6456 H   0  0  0  0  0  0  0  0  0  0  0  0
   19.2541   39.5623  -10.5077 H   0  0  0  0  0  0  0  0  0  0  0  0
   19.4213   38.2260   -9.4042 H   0  0  0  0  0  0  0  0  0  0  0  0
   17.4979   41.3032  -10.1927 H   0  0  0  0  0  0  0  0  0  0  0  0
   15.4541   42.4521  -10.4064 H   0  0  0  0  0  0  0  0  0  0  0  0
   13.9635   41.7131   -9.8936 H   0  0  0  0  0  0  0  0  0  0  0  0
   15.6112   43.0500   -7.7377 H   0  0  0  0  0  0  0  0  0  0  0  0
   13.8930   42.8604   -7.8469 H   0  0  0  0  0  0  0  0  0  0  0  0
   14.0090   44.5003   -9.8642 H   0  0  0  0  0  0  0  0  0  0  0  0
   14.2246   45.1758   -8.2748 H   0  0  0  0  0  0  0  0  0  0  0  0
   16.6682   44.3273   -9.9203 H   0  0  0  0  0  0  0  0  0  0  0  0
   15.8705   45.8459  -10.2091 H   0  0  0  0  0  0  0  0  0  0  0  0
   16.5454   46.7446   -8.2770 H   0  0  0  0  0  0  0  0  0  0  0  0
   17.7951   43.2072   -8.3531 H   0  0  0  0  0  0  0  0  0  0  0  0
   21.4040   44.3439   -6.2831 H   0  0  0  0  0  0  0  0  0  0  0  0
   18.4098   47.3040   -7.1718 H   0  0  0  0  0  0  0  0  0  0  0  0
   23.3401   48.3981   -4.6710 H   0  0  0  0  0  0  0  0  0  0  0  0
   21.0186   49.9600   -4.9697 H   0  0  0  0  0  0  0  0  0  0  0  0
   19.3605   41.8970   -9.1875 H   0  0  0  0  0  0  0  0  0  0  0  0
   14.1232   40.1051   -7.7903 H   0  0  0  0  0  0  0  0  0  0  0  0
   15.4064   38.1903   -6.9287 H   0  0  0  0  0  0  0  0  0  0  0  0
   17.7536   37.8162   -7.6479 H   0  0  0  0  0  0  0  0  0  0  0  0
   24.7146   40.4576   -9.8531 H   0  0  0  0  0  0  0  0  0  0  0  0
  1  2  1  0  0  0  0
  1 47  1  0  0  0  0
  1 48  1  0  0  0  0
  1 49  1  0  0  0  0
  2  3  1  0  0  0  0
  2  4  1  0  0  0  0
  2  5  1  0  0  0  0
  3 50  1  0  0  0  0
  3 51  1  0  0  0  0
  3 52  1  0  0  0  0
  4 53  1  0  0  0  0
  4 54  1  0  0  0  0
  4 55  1  0  0  0  0
  5 10  1  0  0  0  0
  5  6  2  0  0  0  0
  6  7  1  0  0  0  0
  6 56  1  0  0  0  0
  7  8  2  0  0  0  0
  7 11  1  0  0  0  0
  8  9  1  0  0  0  0
  9 10  2  0  0  0  0
  9 57  1  0  0  0  0
 10 58  1  0  0  0  0
 11 13  1  0  0  0  0
 11 12  1  0  0  0  0
 11 14  1  0  0  0  0
 12 13  1  0  0  0  0
 12 59  1  0  0  0  0
 12 60  1  0  0  0  0
 13 61  1  0  0  0  0
 13 62  1  0  0  0  0
 14 15  1  0  0  0  0
 14 63  1  0  0  0  0
 14 88  1  0  0  0  0
 15 16  1  0  0  0  0
 15 64  1  0  0  0  0
 15 65  1  0  0  0  0
 16 45  1  6  0  0  0
 16 17  1  0  0  0  0
 16 18  1  0  0  0  0
 17 66  1  0  0  0  0
 18 46  1  1  0  0  0
 18 41  1  0  0  0  0
 18 19  1  0  0  0  0
 19 20  1  0  0  0  0
 19 67  1  0  0  0  0
 19 68  1  0  0  0  0
 20 44  1  0  0  0  0
 20 21  2  0  0  0  0
 21 22  1  0  0  0  0
 21 69  1  0  0  0  0
 22 23  1  0  0  0  0
 22 42  2  0  0  0  0
 23 24  1  0  0  0  0
 23 70  1  0  0  0  0
 23 71  1  0  0  0  0
 24 25  1  0  0  0  0
 24 72  1  0  0  0  0
 24 73  1  0  0  0  0
 25 26  1  0  0  0  0
 25 74  1  0  0  0  0
 25 75  1  0  0  0  0
 26 27  1  0  0  0  0
 26 76  1  0  0  0  0
 26 77  1  0  0  0  0
 27 28  1  0  0  0  0
 27 78  1  0  0  0  0
 28 33  1  0  0  0  0
 28 29  2  0  0  0  0
 29 30  1  0  0  0  0
 29 79  1  0  0  0  0
 30 31  2  0  0  0  0
 30 39  1  0  0  0  0
 31 32  1  0  0  0  0
 31 80  1  0  0  0  0
 32 33  2  0  0  0  0
 32 34  1  0  0  0  0
 33 81  1  0  0  0  0
 34 38  1  0  0  0  0
 34 35  2  0  0  0  0
 35 36  1  0  0  0  0
 36 37  2  0  0  0  0
 36 82  1  0  0  0  0
 37 38  1  0  0  0  0
 37 83  1  0  0  0  0
 39 40  2  0  0  0  0
 39 41  1  0  0  0  0
 41 84  1  0  0  0  0
 42 43  1  0  0  0  0
 42 85  1  0  0  0  0
 43 44  2  0  0  0  0
 43 86  1  0  0  0  0
 44 87  1  0  0  0  0
M  CHG  1  14   1
M  END
>  <s_m_source_file>
BACE_119.smi

>  <i_m_source_file_index>
1

>  <i_lp_mmshare_version>
42013

>  <i_f3d_flags>
0

>  <s_epik_input>
W0NIM11DKFtDSDNdKShbQ0gzXSljMVtjSF1jKG5bY0hdW2NIXTEpQzIoW0NIMl1bQ0gyXTIpW05IXVtDSDJdW0NAQEhdKFtPSF0pW0NASF0oW0NIMl0zKVtOSF1DKD1PKWMoW2NIXWMoW2NIXTQpLWM1bltjSF1bY0hdbzUpW2NIXWM0W05IXVtDSDJdW0NIMl1bQ0gyXVtDSDJdYyhbY0hdYzM2KVtjSF1bY0hdW2NIXTY=

>  <s_epik_cmdline>
J2VwaWtfcHl0aG9uJywgJy1waCcsICc3LjAnLCAnLXRuJywgJzgnLCAnLW1hJywgJzIwMCcsICctaW1hZScsICc8aW5maWxlLm1hZT4nLCAnLW9tYWUnLCAnPG91dGZpbGUubWFlPic=

>  <r_epik_Ionization_Penalty>
0.7895

>  <r_epik_Ionization_Penalty_Charging>
0.7876

>  <r_epik_Ionization_Penalty_Neutral>
0.0018

>  <r_epik_State_Penalty>
0.8240

>  <r_epik_Charging_Adjusted_Penalty>
1.61158

>  <i_epik_Tot_Q>
1

>  <i_epik_Tot_abs_Q>
1

>  <s_lp_Force_Field>
OPLS_2005

>  <r_lp_Energy>
32.0464

>  <b_lp_Chiralities_Consistent>
1

>  <s_lp_Variant>
BACE_119.smi:1-2

>  <chiral flag>
1

>  <version>
0

>  <s_i_glide_gridfile>
second_dock_grid_2

>  <i_i_glide_lignum>
243

>  <i_i_glide_rotatable_bonds>
8

>  <r_i_docking_score>
-2.50086

>  <r_i_glide_ligand_efficiency>
-0.0568377

>  <r_i_glide_ligand_efficiency_sa>
-0.200657

>  <r_i_glide_ligand_efficiency_ln>
-0.522734

>  <r_glide_XP_GScore>
-3.32486

>  <r_i_glide_gscore>
-3.32486

>  <r_i_glide_evdw>
-43.2065

>  <r_i_glide_ecoul>
-7.86468

>  <r_i_glide_energy>
-51.0712

>  <r_i_glide_einternal>
3.07789

>  <r_i_glide_emodel>
-73.1581

>  <r_glide_XP_HBond>
-1.38492

>  <i_i_glide_confnum>
1

>  <i_i_glide_posenum>
9

>  <r_i_glide_eff_state_penalty>
0.824

>  <i_glide_XP_PoseRank>
1

$$$$
