BACE_111.smi:1
 OpenBabel09291822493D
Structure written by MMmdl.
 89 93  0  0  1  0  0  0  0  0999 V2000
   26.7869   46.4586   -6.4563 C   0  0  0  0  0  0  0  0  0  0  0  0
   28.1306   45.7118   -6.4280 C   0  0  0  0  0  0  0  0  0  0  0  0
   28.1201   44.5608   -5.4107 C   0  0  0  0  0  0  0  0  0  0  0  0
   28.5568   45.2287   -7.8088 C   0  0  0  0  0  0  0  0  0  0  0  0
   27.6898   44.4403   -8.5940 C   0  0  0  0  0  0  0  0  0  0  0  0
   28.0718   43.9880   -9.8786 C   0  0  0  0  0  0  0  0  0  0  0  0
   29.3724   44.2892  -10.3570 C   0  0  0  0  0  0  0  0  0  0  0  0
   30.2338   45.0845   -9.5767 C   0  0  0  0  0  0  0  0  0  0  0  0
   29.8312   45.5552   -8.3127 C   0  0  0  0  0  0  0  0  0  0  0  0
   29.8468   43.8417  -11.5722 O   0  0  0  0  0  0  0  0  0  0  0  0
   29.1942   42.7350  -12.1938 C   0  0  0  0  0  0  0  0  0  0  0  0
   29.6396   41.4259  -11.5160 C   0  0  0  0  0  0  0  0  0  0  0  0
   29.6788   42.7271  -13.6523 C   0  0  0  0  0  0  0  0  0  0  0  0
   27.6717   42.9572  -12.1500 C   0  0  0  0  0  0  0  0  0  0  0  0
   27.1252   43.1369  -10.7218 C   0  0  2  0  0  0  0  0  0  0  0  0
   25.7527   43.7006  -10.8259 N   0  3  0  0  0  0  0  0  0  0  0  0
   24.7095   43.2487   -9.8671 C   0  0  0  0  0  0  0  0  0  0  0  0
   24.1353   41.8511  -10.1779 C   0  0  1  0  0  0  0  0  0  0  0  0
   25.1638   40.9500   -9.8567 O   0  0  0  0  0  0  0  0  0  0  0  0
   22.8429   41.5034   -9.3813 C   0  0  2  0  0  0  0  0  0  0  0  0
   22.7344   40.0037   -8.9874 C   0  0  0  0  0  0  0  0  0  0  0  0
   21.4414   39.6296   -8.2775 C   0  0  0  0  0  0  0  0  0  0  0  0
   20.4254   38.9206   -8.9528 C   0  0  0  0  0  0  0  0  0  0  0  0
   19.2234   38.5722   -8.2990 C   0  0  0  0  0  0  0  0  0  0  0  0
   19.0675   38.9150   -6.9328 C   0  0  0  0  0  0  0  0  0  0  0  0
   20.0774   39.6280   -6.2613 C   0  0  0  0  0  0  0  0  0  0  0  0
   21.2623   39.9840   -6.9267 C   0  0  0  0  0  0  0  0  0  0  0  0
   18.2708   37.9202   -9.0539 O   0  0  0  0  0  0  0  0  0  0  0  0
   16.9510   37.7610   -8.5327 C   0  0  0  0  0  0  0  0  0  0  0  0
   15.9478   37.7586   -9.6946 C   0  0  0  0  0  0  0  0  0  0  0  0
   15.6574   39.1361  -10.3366 C   0  0  0  0  0  0  0  0  0  0  0  0
   16.9172   39.9426  -10.6786 C   0  0  0  0  0  0  0  0  0  0  0  0
   16.6170   41.0991  -11.4538 O   0  0  0  0  0  0  0  0  0  0  0  0
   17.5799   42.0895  -11.4984 C   0  0  0  0  0  0  0  0  0  0  0  0
   18.8598   41.9820  -10.9015 C   0  0  0  0  0  0  0  0  0  0  0  0
   19.7236   43.0977  -10.9079 C   0  0  0  0  0  0  0  0  0  0  0  0
   19.2774   44.2727  -11.5471 C   0  0  0  0  0  0  0  0  0  0  0  0
   18.0059   44.2754  -12.1509 C   0  0  0  0  0  0  0  0  0  0  0  0
   17.4962   45.5257  -12.8320 C   0  0  0  0  0  0  0  0  0  0  0  0
   17.1755   43.2083  -12.1399 N   0  0  0  0  0  0  0  0  0  0  0  0
   21.0389   43.0644  -10.1807 C   0  0  0  0  0  0  0  0  0  0  0  0
   21.5107   44.0855   -9.6810 O   0  0  0  0  0  0  0  0  0  0  0  0
   21.6456   41.8673  -10.1442 N   0  0  0  0  0  0  0  0  0  0  0  0
   27.1300   42.1596  -10.2500 H   0  0  0  0  0  0  0  0  0  0  0  0
   23.9354   41.7511  -11.2403 H   0  0  0  0  0  0  0  0  0  0  0  0
   22.8449   42.0704   -8.4486 H   0  0  0  0  0  0  0  0  0  0  0  0
   26.8203   47.2938   -7.1565 H   0  0  0  0  0  0  0  0  0  0  0  0
   26.5481   46.8642   -5.4721 H   0  0  0  0  0  0  0  0  0  0  0  0
   25.9623   45.8078   -6.7468 H   0  0  0  0  0  0  0  0  0  0  0  0
   28.8779   46.4295   -6.0868 H   0  0  0  0  0  0  0  0  0  0  0  0
   29.1148   44.1270   -5.3137 H   0  0  0  0  0  0  0  0  0  0  0  0
   27.4342   43.7637   -5.7067 H   0  0  0  0  0  0  0  0  0  0  0  0
   27.8124   44.9070   -4.4220 H   0  0  0  0  0  0  0  0  0  0  0  0
   26.7341   44.1843   -8.1770 H   0  0  0  0  0  0  0  0  0  0  0  0
   31.2209   45.3250   -9.9443 H   0  0  0  0  0  0  0  0  0  0  0  0
   30.5114   46.1556   -7.7263 H   0  0  0  0  0  0  0  0  0  0  0  0
   29.2334   40.5559  -12.0356 H   0  0  0  0  0  0  0  0  0  0  0  0
   29.3331   41.3634  -10.4749 H   0  0  0  0  0  0  0  0  0  0  0  0
   30.7249   41.3335  -11.5337 H   0  0  0  0  0  0  0  0  0  0  0  0
   29.2492   41.8928  -14.2104 H   0  0  0  0  0  0  0  0  0  0  0  0
   30.7627   42.6295  -13.7087 H   0  0  0  0  0  0  0  0  0  0  0  0
   29.4066   43.6476  -14.1695 H   0  0  0  0  0  0  0  0  0  0  0  0
   27.1449   42.1493  -12.6554 H   0  0  0  0  0  0  0  0  0  0  0  0
   27.4590   43.8600  -12.7257 H   0  0  0  0  0  0  0  0  0  0  0  0
   25.8350   44.7055  -10.7643 H   0  0  0  0  0  0  0  0  0  0  0  0
   25.0412   43.2897   -8.8332 H   0  0  0  0  0  0  0  0  0  0  0  0
   23.9215   43.9889   -9.9465 H   0  0  0  0  0  0  0  0  0  0  0  0
   24.8764   40.0524  -10.0112 H   0  0  0  0  0  0  0  0  0  0  0  0
   22.8484   39.3713   -9.8705 H   0  0  0  0  0  0  0  0  0  0  0  0
   23.5508   39.7325   -8.3169 H   0  0  0  0  0  0  0  0  0  0  0  0
   20.5565   38.6500   -9.9914 H   0  0  0  0  0  0  0  0  0  0  0  0
   18.1844   38.6470   -6.3746 H   0  0  0  0  0  0  0  0  0  0  0  0
   19.9383   39.8987   -5.2240 H   0  0  0  0  0  0  0  0  0  0  0  0
   22.0314   40.5260   -6.3960 H   0  0  0  0  0  0  0  0  0  0  0  0
   16.6448   38.5265   -7.8215 H   0  0  0  0  0  0  0  0  0  0  0  0
   16.9137   36.7928   -8.0398 H   0  0  0  0  0  0  0  0  0  0  0  0
   16.3101   37.0530  -10.4388 H   0  0  0  0  0  0  0  0  0  0  0  0
   15.0014   37.3512   -9.3400 H   0  0  0  0  0  0  0  0  0  0  0  0
   15.0588   38.9924  -11.2364 H   0  0  0  0  0  0  0  0  0  0  0  0
   15.0400   39.7253   -9.6577 H   0  0  0  0  0  0  0  0  0  0  0  0
   17.6388   39.3296  -11.2220 H   0  0  0  0  0  0  0  0  0  0  0  0
   17.3528   40.2344   -9.7251 H   0  0  0  0  0  0  0  0  0  0  0  0
   19.1715   41.0818  -10.3972 H   0  0  0  0  0  0  0  0  0  0  0  0
   19.8954   45.1584  -11.5627 H   0  0  0  0  0  0  0  0  0  0  0  0
   17.4529   46.3498  -12.1209 H   0  0  0  0  0  0  0  0  0  0  0  0
   16.4965   45.3762  -13.2397 H   0  0  0  0  0  0  0  0  0  0  0  0
   18.1677   45.8097  -13.6400 H   0  0  0  0  0  0  0  0  0  0  0  0
   21.1678   41.1096  -10.6084 H   0  0  0  0  0  0  0  0  0  0  0  0
   25.4055   43.4699  -11.7439 H   0  0  0  0  0  0  0  0  0  0  0  0
  1  2  1  0  0  0  0
  1 47  1  0  0  0  0
  1 48  1  0  0  0  0
  1 49  1  0  0  0  0
  2  3  1  0  0  0  0
  2  4  1  0  0  0  0
  2 50  1  0  0  0  0
  3 51  1  0  0  0  0
  3 52  1  0  0  0  0
  3 53  1  0  0  0  0
  4  9  1  0  0  0  0
  4  5  2  0  0  0  0
  5  6  1  0  0  0  0
  5 54  1  0  0  0  0
  6 15  1  0  0  0  0
  6  7  2  0  0  0  0
  7  8  1  0  0  0  0
  7 10  1  0  0  0  0
  8  9  2  0  0  0  0
  8 55  1  0  0  0  0
  9 56  1  0  0  0  0
 10 11  1  0  0  0  0
 11 12  1  0  0  0  0
 11 13  1  0  0  0  0
 11 14  1  0  0  0  0
 12 57  1  0  0  0  0
 12 58  1  0  0  0  0
 12 59  1  0  0  0  0
 13 60  1  0  0  0  0
 13 61  1  0  0  0  0
 13 62  1  0  0  0  0
 14 15  1  0  0  0  0
 14 63  1  0  0  0  0
 14 64  1  0  0  0  0
 15 44  1  1  0  0  0
 15 16  1  0  0  0  0
 16 17  1  0  0  0  0
 16 65  1  0  0  0  0
 16 89  1  0  0  0  0
 17 18  1  0  0  0  0
 17 66  1  0  0  0  0
 17 67  1  0  0  0  0
 18 45  1  6  0  0  0
 18 19  1  0  0  0  0
 18 20  1  0  0  0  0
 19 68  1  0  0  0  0
 20 46  1  1  0  0  0
 20 43  1  0  0  0  0
 20 21  1  0  0  0  0
 21 22  1  0  0  0  0
 21 69  1  0  0  0  0
 21 70  1  0  0  0  0
 22 27  1  0  0  0  0
 22 23  2  0  0  0  0
 23 24  1  0  0  0  0
 23 71  1  0  0  0  0
 24 25  2  0  0  0  0
 24 28  1  0  0  0  0
 25 26  1  0  0  0  0
 25 72  1  0  0  0  0
 26 27  2  0  0  0  0
 26 73  1  0  0  0  0
 27 74  1  0  0  0  0
 28 29  1  0  0  0  0
 29 30  1  0  0  0  0
 29 75  1  0  0  0  0
 29 76  1  0  0  0  0
 30 31  1  0  0  0  0
 30 77  1  0  0  0  0
 30 78  1  0  0  0  0
 31 32  1  0  0  0  0
 31 79  1  0  0  0  0
 31 80  1  0  0  0  0
 32 33  1  0  0  0  0
 32 81  1  0  0  0  0
 32 82  1  0  0  0  0
 33 34  1  0  0  0  0
 34 40  1  0  0  0  0
 34 35  2  0  0  0  0
 35 36  1  0  0  0  0
 35 83  1  0  0  0  0
 36 37  2  0  0  0  0
 36 41  1  0  0  0  0
 37 38  1  0  0  0  0
 37 84  1  0  0  0  0
 38 39  1  0  0  0  0
 38 40  2  0  0  0  0
 39 85  1  0  0  0  0
 39 86  1  0  0  0  0
 39 87  1  0  0  0  0
 41 42  2  0  0  0  0
 41 43  1  0  0  0  0
 43 88  1  0  0  0  0
M  CHG  1  16   1
M  END
>  <s_m_source_file>
BACE_111.smi

>  <i_m_source_file_index>
1

>  <i_lp_mmshare_version>
42013

>  <i_f3d_flags>
0

>  <s_epik_input>
W0NIM11bQ0hdKFtDSDNdKWMoW2NIXTEpW2NIXVtjSF1jKGMxMilPQyhbQ0gzXSkoW0NIM10pW0NIMl1bQ0BASF0yW05IXVtDSDJdW0NAQEhdKFtPSF0pW0NASF0oW0NIMl0zKVtOSF1DKD1PKWMoW2NIXWMobjQpW0NIM10pW2NIXWM0T1tDSDJdW0NIMl1bQ0gyXVtDSDJdT2MoW2NIXWMzNSlbY0hdW2NIXVtjSF01

>  <s_epik_cmdline>
J2VwaWtfcHl0aG9uJywgJy1waCcsICc3LjAnLCAnLXRuJywgJzgnLCAnLW1hJywgJzIwMCcsICctaW1hZScsICc8aW5maWxlLm1hZT4nLCAnLW9tYWUnLCAnPG91dGZpbGUubWFlPic=

>  <r_lp_tautomer_probability>
1

>  <r_epik_Ionization_Penalty>
0.0207

>  <r_epik_Ionization_Penalty_Charging>
0.0207

>  <r_epik_Ionization_Penalty_Neutral>
0.0000

>  <r_epik_State_Penalty>
0.0166

>  <r_epik_Charging_Adjusted_Penalty>
0.0372807

>  <i_epik_Tot_Q>
1

>  <i_epik_Tot_abs_Q>
1

>  <s_lp_Force_Field>
OPLS_2005

>  <r_lp_Energy>
37.0547

>  <b_lp_Chiralities_Consistent>
1

>  <s_lp_Variant>
BACE_111.smi:1-1

>  <chiral flag>
1

>  <version>
0

>  <s_i_glide_gridfile>
second_dock_grid_2

>  <i_i_glide_lignum>
226

>  <i_i_glide_rotatable_bonds>
6

>  <r_i_docking_score>
-3.58655

>  <r_i_glide_ligand_efficiency>
-0.0834082

>  <r_i_glide_ligand_efficiency_sa>
-0.292212

>  <r_i_glide_ligand_efficiency_ln>
-0.753288

>  <r_glide_XP_GScore>
-3.60315

>  <r_i_glide_gscore>
-3.60315

>  <r_i_glide_evdw>
-41.7737

>  <r_i_glide_ecoul>
-11.8565

>  <r_i_glide_energy>
-53.6302

>  <r_i_glide_einternal>
3.08659

>  <r_i_glide_emodel>
-73.3621

>  <r_glide_XP_HBond>
-0.844865

>  <i_i_glide_confnum>
1

>  <i_i_glide_posenum>
4

>  <r_i_glide_eff_state_penalty>
0.0166

>  <i_glide_XP_PoseRank>
1

$$$$
