BACE_92.smi:1
 OpenBabel09291822493D
Structure written by MMmdl.
 81 83  0  0  1  0  0  0  0  0999 V2000
   31.4207   41.8988  -13.2210 C   0  0  0  0  0  0  0  0  0  0  0  0
   30.7839   43.1338  -12.5687 C   0  0  2  0  0  0  0  0  0  0  0  0
   31.8622   44.1160  -12.0513 C   0  0  0  0  0  0  0  0  0  0  0  0
   31.2903   45.5017  -11.6996 C   0  0  0  0  0  0  0  0  0  0  0  0
   30.7338   46.1553  -12.5785 O   0  0  0  0  0  0  0  0  0  0  0  0
   31.4005   45.9903  -10.4555 N   0  0  0  0  0  0  0  0  0  0  0  0
   31.9342   45.3172   -9.2797 C   0  0  0  0  0  0  0  0  0  0  0  0
   31.6292   46.1283   -8.0074 C   0  0  0  0  0  0  0  0  0  0  0  0
   31.9735   45.3868   -6.7034 C   0  0  0  0  0  0  0  0  0  0  0  0
   31.0102   44.2451   -6.3211 C   0  0  0  0  0  0  0  0  0  0  0  0
   29.8028   44.7389   -5.7369 O   0  0  0  0  0  0  0  0  0  0  0  0
   28.6159   44.6938   -6.4413 C   0  0  0  0  0  0  0  0  0  0  0  0
   28.5193   44.5501   -7.8485 C   0  0  0  0  0  0  0  0  0  0  0  0
   27.2625   44.4720   -8.4860 C   0  0  0  0  0  0  0  0  0  0  0  0
   27.1944   44.3452   -9.9997 C   0  0  0  0  0  0  0  0  0  0  0  0
   27.5250   42.9212  -10.5416 C   0  0  2  0  0  0  0  0  0  0  0  0
   28.5534   43.0243  -11.5740 N   0  0  0  0  0  0  0  0  0  0  0  0
   29.8484   42.7025  -11.4275 C   0  0  0  0  0  0  0  0  0  0  0  0
   30.3026   42.1465  -10.4280 O   0  0  0  0  0  0  0  0  0  0  0  0
   26.3215   42.1237  -11.1134 C   0  0  2  0  0  0  0  0  0  0  0  0
   25.5456   42.9505  -11.9670 O   0  0  0  0  0  0  0  0  0  0  0  0
   25.4513   41.5427   -9.9815 C   0  0  0  0  0  0  0  0  0  0  0  0
   24.1784   40.9501  -10.4390 N   0  3  0  0  0  0  0  0  0  0  0  0
   22.9884   41.7863  -10.1827 C   0  0  0  0  0  0  0  0  0  0  0  0
   21.7222   41.0306  -10.5238 C   0  0  0  0  0  0  0  0  0  0  0  0
   21.0053   40.3500   -9.5151 C   0  0  0  0  0  0  0  0  0  0  0  0
   19.8002   39.6647   -9.8151 C   0  0  0  0  0  0  0  0  0  0  0  0
   19.3410   39.6787  -11.1532 C   0  0  0  0  0  0  0  0  0  0  0  0
   20.0601   40.3485  -12.1602 C   0  0  0  0  0  0  0  0  0  0  0  0
   21.2480   41.0265  -11.8491 C   0  0  0  0  0  0  0  0  0  0  0  0
   18.9741   38.9302   -8.7364 C   0  0  0  0  0  0  0  0  0  0  0  0
   17.5882   39.5937   -8.6114 C   0  0  0  0  0  0  0  0  0  0  0  0
   19.6344   38.9550   -7.3392 C   0  0  0  0  0  0  0  0  0  0  0  0
   18.7878   37.4525   -9.1351 C   0  0  0  0  0  0  0  0  0  0  0  0
   26.0856   44.5521   -7.7138 C   0  0  0  0  0  0  0  0  0  0  0  0
   26.1694   44.7063   -6.3183 C   0  0  0  0  0  0  0  0  0  0  0  0
   27.4263   44.7789   -5.6903 C   0  0  0  0  0  0  0  0  0  0  0  0
   30.1906   43.6322  -13.3386 H   0  0  0  0  0  0  0  0  0  0  0  0
   27.9380   42.3299   -9.7191 H   0  0  0  0  0  0  0  0  0  0  0  0
   26.6962   41.2864  -11.7052 H   0  0  0  0  0  0  0  0  0  0  0  0
   30.6608   41.2139  -13.6038 H   0  0  0  0  0  0  0  0  0  0  0  0
   32.0446   41.3509  -12.5130 H   0  0  0  0  0  0  0  0  0  0  0  0
   32.0516   42.1803  -14.0652 H   0  0  0  0  0  0  0  0  0  0  0  0
   32.4226   43.6729  -11.2289 H   0  0  0  0  0  0  0  0  0  0  0  0
   32.5963   44.2786  -12.8386 H   0  0  0  0  0  0  0  0  0  0  0  0
   31.0282   46.9179  -10.3081 H   0  0  0  0  0  0  0  0  0  0  0  0
   31.5038   44.3191   -9.2060 H   0  0  0  0  0  0  0  0  0  0  0  0
   33.0110   45.1897   -9.3889 H   0  0  0  0  0  0  0  0  0  0  0  0
   32.2082   47.0518   -8.0413 H   0  0  0  0  0  0  0  0  0  0  0  0
   30.5847   46.4392   -7.9811 H   0  0  0  0  0  0  0  0  0  0  0  0
   32.9857   44.9876   -6.7836 H   0  0  0  0  0  0  0  0  0  0  0  0
   32.0058   46.1011   -5.8792 H   0  0  0  0  0  0  0  0  0  0  0  0
   30.8601   43.5375   -7.1352 H   0  0  0  0  0  0  0  0  0  0  0  0
   31.4898   43.6571   -5.5389 H   0  0  0  0  0  0  0  0  0  0  0  0
   29.3996   44.4833   -8.4645 H   0  0  0  0  0  0  0  0  0  0  0  0
   26.2202   44.6967  -10.3367 H   0  0  0  0  0  0  0  0  0  0  0  0
   27.9016   45.0726  -10.4004 H   0  0  0  0  0  0  0  0  0  0  0  0
   28.2739   43.4649  -12.4380 H   0  0  0  0  0  0  0  0  0  0  0  0
   25.0443   42.4035  -12.5600 H   0  0  0  0  0  0  0  0  0  0  0  0
   26.0216   40.7384   -9.5127 H   0  0  0  0  0  0  0  0  0  0  0  0
   25.2611   42.2830   -9.2041 H   0  0  0  0  0  0  0  0  0  0  0  0
   24.2253   40.7372  -11.4324 H   0  0  0  0  0  0  0  0  0  0  0  0
   22.9557   42.0848   -9.1312 H   0  0  0  0  0  0  0  0  0  0  0  0
   23.0463   42.7051  -10.7714 H   0  0  0  0  0  0  0  0  0  0  0  0
   21.3932   40.3741   -8.5071 H   0  0  0  0  0  0  0  0  0  0  0  0
   18.4262   39.1750  -11.4217 H   0  0  0  0  0  0  0  0  0  0  0  0
   19.6909   40.3414  -13.1751 H   0  0  0  0  0  0  0  0  0  0  0  0
   21.7947   41.5375  -12.6291 H   0  0  0  0  0  0  0  0  0  0  0  0
   16.9857   39.1111   -7.8415 H   0  0  0  0  0  0  0  0  0  0  0  0
   17.0211   39.5392   -9.5407 H   0  0  0  0  0  0  0  0  0  0  0  0
   17.6762   40.6480   -8.3406 H   0  0  0  0  0  0  0  0  0  0  0  0
   19.7472   39.9715   -6.9607 H   0  0  0  0  0  0  0  0  0  0  0  0
   20.6162   38.4794   -7.3451 H   0  0  0  0  0  0  0  0  0  0  0  0
   19.0259   38.4156   -6.6100 H   0  0  0  0  0  0  0  0  0  0  0  0
   18.2149   36.9116   -8.3803 H   0  0  0  0  0  0  0  0  0  0  0  0
   19.7501   36.9537   -9.2399 H   0  0  0  0  0  0  0  0  0  0  0  0
   18.2543   37.3383  -10.0774 H   0  0  0  0  0  0  0  0  0  0  0  0
   25.1156   44.5106   -8.1872 H   0  0  0  0  0  0  0  0  0  0  0  0
   25.2713   44.7670   -5.7223 H   0  0  0  0  0  0  0  0  0  0  0  0
   27.4793   44.8912   -4.6168 H   0  0  0  0  0  0  0  0  0  0  0  0
   24.0609   40.0690   -9.9491 H   0  0  0  0  0  0  0  0  0  0  0  0
  1  2  1  0  0  0  0
  1 41  1  0  0  0  0
  1 42  1  0  0  0  0
  1 43  1  0  0  0  0
  2 38  1  6  0  0  0
  2 18  1  0  0  0  0
  2  3  1  0  0  0  0
  3  4  1  0  0  0  0
  3 44  1  0  0  0  0
  3 45  1  0  0  0  0
  4  5  2  0  0  0  0
  4  6  1  0  0  0  0
  6  7  1  0  0  0  0
  6 46  1  0  0  0  0
  7  8  1  0  0  0  0
  7 47  1  0  0  0  0
  7 48  1  0  0  0  0
  8  9  1  0  0  0  0
  8 49  1  0  0  0  0
  8 50  1  0  0  0  0
  9 10  1  0  0  0  0
  9 51  1  0  0  0  0
  9 52  1  0  0  0  0
 10 11  1  0  0  0  0
 10 53  1  0  0  0  0
 10 54  1  0  0  0  0
 11 12  1  0  0  0  0
 12 37  1  0  0  0  0
 12 13  2  0  0  0  0
 13 14  1  0  0  0  0
 13 55  1  0  0  0  0
 14 15  1  0  0  0  0
 14 35  2  0  0  0  0
 15 16  1  0  0  0  0
 15 56  1  0  0  0  0
 15 57  1  0  0  0  0
 16 39  1  1  0  0  0
 16 17  1  0  0  0  0
 16 20  1  0  0  0  0
 17 18  1  0  0  0  0
 17 58  1  0  0  0  0
 18 19  2  0  0  0  0
 20 40  1  6  0  0  0
 20 21  1  0  0  0  0
 20 22  1  0  0  0  0
 21 59  1  0  0  0  0
 22 23  1  0  0  0  0
 22 60  1  0  0  0  0
 22 61  1  0  0  0  0
 23 24  1  0  0  0  0
 23 62  1  0  0  0  0
 23 81  1  0  0  0  0
 24 25  1  0  0  0  0
 24 63  1  0  0  0  0
 24 64  1  0  0  0  0
 25 30  1  0  0  0  0
 25 26  2  0  0  0  0
 26 27  1  0  0  0  0
 26 65  1  0  0  0  0
 27 28  2  0  0  0  0
 27 31  1  0  0  0  0
 28 29  1  0  0  0  0
 28 66  1  0  0  0  0
 29 30  2  0  0  0  0
 29 67  1  0  0  0  0
 30 68  1  0  0  0  0
 31 32  1  0  0  0  0
 31 33  1  0  0  0  0
 31 34  1  0  0  0  0
 32 69  1  0  0  0  0
 32 70  1  0  0  0  0
 32 71  1  0  0  0  0
 33 72  1  0  0  0  0
 33 73  1  0  0  0  0
 33 74  1  0  0  0  0
 34 75  1  0  0  0  0
 34 76  1  0  0  0  0
 34 77  1  0  0  0  0
 35 36  1  0  0  0  0
 35 78  1  0  0  0  0
 36 37  2  0  0  0  0
 36 79  1  0  0  0  0
 37 80  1  0  0  0  0
M  CHG  1  23   1
M  END
>  <s_m_source_file>
BACE_92.smi

>  <i_m_source_file_index>
1

>  <i_lp_mmshare_version>
42013

>  <i_f3d_flags>
0

>  <s_epik_input>
TzFbQ0gyXVtDSDJdW0NIMl1bQ0gyXVtOSF1DKD1PKVtDSDJdW0NAQEhdKFtDSDNdKUMoPU8pW05IXVtDQEBIXShbQ0gyXWMoW2NIXWMxMilbY0hdW2NIXVtjSF0yKVtDQEhdKFtPSF0pW0NIMl1bTkhdW0NIMl1jM1tjSF1jKEMoW0NIM10pKFtDSDNdKVtDSDNdKVtjSF1bY0hdW2NIXTM=

>  <s_epik_cmdline>
J2VwaWtfcHl0aG9uJywgJy1waCcsICc3LjAnLCAnLXRuJywgJzgnLCAnLW1hJywgJzIwMCcsICctaW1hZScsICc8aW5maWxlLm1hZT4nLCAnLW9tYWUnLCAnPG91dGZpbGUubWFlPic=

>  <r_lp_tautomer_probability>
1

>  <r_epik_Ionization_Penalty>
0.0199

>  <r_epik_Ionization_Penalty_Charging>
0.0199

>  <r_epik_Ionization_Penalty_Neutral>
0.0000

>  <r_epik_State_Penalty>
0.0159

>  <r_epik_Charging_Adjusted_Penalty>
0.0357555

>  <i_epik_Tot_Q>
1

>  <i_epik_Tot_abs_Q>
1

>  <s_lp_Force_Field>
OPLS_2005

>  <r_lp_Energy>
29.5183

>  <b_lp_Chiralities_Consistent>
1

>  <s_lp_Variant>
BACE_92.smi:1-1

>  <chiral flag>
1

>  <version>
0

>  <s_i_glide_gridfile>
second_dock_grid_2

>  <i_i_glide_lignum>
186

>  <i_i_glide_rotatable_bonds>
7

>  <r_i_docking_score>
-4.62235

>  <r_i_glide_ligand_efficiency>
-0.124928

>  <r_i_glide_ligand_efficiency_sa>
-0.416289

>  <r_i_glide_ligand_efficiency_ln>
-1.00248

>  <r_glide_XP_GScore>
-4.63825

>  <r_i_glide_gscore>
-4.63825

>  <r_i_glide_evdw>
-34.9548

>  <r_i_glide_ecoul>
-12.7663

>  <r_i_glide_energy>
-47.7211

>  <r_i_glide_einternal>
7.5218

>  <r_i_glide_emodel>
-59.3214

>  <r_glide_XP_HBond>
-1.25974

>  <i_i_glide_confnum>
1

>  <i_i_glide_posenum>
7

>  <r_i_glide_eff_state_penalty>
0.0159

>  <i_glide_XP_PoseRank>
1

$$$$
