BACE_17.smi:1
 OpenBabel10031817133D
Structure written by MMmdl.
 62 64  0  0  1  0  0  0  0  0999 V2000
   17.5622   45.9379   -7.6882 C   0  0  0  0  0  0  0  0  0  0  0  0
   18.2983   47.0576   -7.0902 N   0  0  0  0  0  0  0  0  0  0  0  0
   17.5044   48.2767   -6.9230 C   0  0  0  0  0  0  0  0  0  0  0  0
   19.5700   46.9813   -6.6233 C   0  0  0  0  0  0  0  0  0  0  0  0
   20.0852   47.8755   -5.9513 O   0  0  0  0  0  0  0  0  0  0  0  0
   20.3800   45.7523   -6.9318 C   0  0  0  0  0  0  0  0  0  0  0  0
   21.0288   45.0576   -5.8852 C   0  0  0  0  0  0  0  0  0  0  0  0
   20.5487   45.3123   -8.2650 C   0  0  0  0  0  0  0  0  0  0  0  0
   21.3079   44.1584   -8.5452 C   0  0  0  0  0  0  0  0  0  0  0  0
   21.9711   43.4951   -7.4939 C   0  0  0  0  0  0  0  0  0  0  0  0
   21.8220   43.9204   -6.1643 C   0  0  0  0  0  0  0  0  0  0  0  0
   21.3957   43.6246   -9.9401 C   0  0  0  0  0  0  0  0  0  0  0  0
   21.4848   44.3695  -10.9156 O   0  0  0  0  0  0  0  0  0  0  0  0
   21.2694   42.2926  -10.0122 N   0  0  0  0  0  0  0  0  0  0  0  0
   21.2544   41.4722  -11.2149 C   0  0  2  0  0  0  0  0  0  0  0  0
   19.9796   41.7308  -12.0751 C   0  0  1  0  0  0  0  0  0  0  0  0
   20.0600   40.9461  -13.2398 O   0  0  0  0  0  0  0  0  0  0  0  0
   18.5845   41.5438  -11.4336 C   0  0  0  0  0  0  0  0  0  0  0  0
   18.2870   42.5626  -10.5011 O   0  0  0  0  0  0  0  0  0  0  0  0
   21.5648   39.9880  -10.8601 C   0  0  0  0  0  0  0  0  0  0  0  0
   20.7050   39.3662   -9.7650 C   0  0  0  0  0  0  0  0  0  0  0  0
   20.9572   39.6472   -8.4026 C   0  0  0  0  0  0  0  0  0  0  0  0
   20.1291   39.1075   -7.3865 C   0  0  0  0  0  0  0  0  0  0  0  0
   19.0614   38.2645   -7.7561 C   0  0  0  0  0  0  0  0  0  0  0  0
   18.8321   37.9441   -9.1071 C   0  0  0  0  0  0  0  0  0  0  0  0
   19.6587   38.4847  -10.1080 C   0  0  0  0  0  0  0  0  0  0  0  0
   20.2964   39.3499   -6.0400 O   0  0  0  0  0  0  0  0  0  0  0  0
   21.2051   40.3656   -5.6354 C   0  0  0  0  0  0  0  0  0  0  0  0
   21.0858   40.5547   -4.1140 C   0  0  0  0  0  0  0  0  0  0  0  0
   22.0576   41.5750   -3.4863 C   0  0  0  0  0  0  0  0  0  0  0  0
   21.8511   43.0282   -3.9432 C   0  0  0  0  0  0  0  0  0  0  0  0
   22.4738   43.1784   -5.2100 O   0  0  0  0  0  0  0  0  0  0  0  0
   22.0967   41.8041  -11.8263 H   0  0  0  0  0  0  0  0  0  0  0  0
   20.0100   42.7554  -12.4354 H   0  0  0  0  0  0  0  0  0  0  0  0
   17.8176   45.8241   -8.7415 H   0  0  0  0  0  0  0  0  0  0  0  0
   16.4834   46.0904   -7.6392 H   0  0  0  0  0  0  0  0  0  0  0  0
   17.7710   44.9960   -7.1773 H   0  0  0  0  0  0  0  0  0  0  0  0
   16.8719   48.1872   -6.0401 H   0  0  0  0  0  0  0  0  0  0  0  0
   16.8605   48.4393   -7.7883 H   0  0  0  0  0  0  0  0  0  0  0  0
   18.1166   49.1735   -6.8134 H   0  0  0  0  0  0  0  0  0  0  0  0
   20.9197   45.4051   -4.8686 H   0  0  0  0  0  0  0  0  0  0  0  0
   20.0753   45.8445   -9.0775 H   0  0  0  0  0  0  0  0  0  0  0  0
   22.5801   42.6248   -7.6929 H   0  0  0  0  0  0  0  0  0  0  0  0
   21.1121   41.8024   -9.1439 H   0  0  0  0  0  0  0  0  0  0  0  0
   19.9651   40.0375  -12.9933 H   0  0  0  0  0  0  0  0  0  0  0  0
   17.8194   41.5950  -12.2091 H   0  0  0  0  0  0  0  0  0  0  0  0
   18.4653   40.5757  -10.9594 H   0  0  0  0  0  0  0  0  0  0  0  0
   18.4337   43.4021  -10.9090 H   0  0  0  0  0  0  0  0  0  0  0  0
   21.5273   39.3627  -11.7525 H   0  0  0  0  0  0  0  0  0  0  0  0
   22.6011   39.9246  -10.5232 H   0  0  0  0  0  0  0  0  0  0  0  0
   21.7907   40.2848   -8.1523 H   0  0  0  0  0  0  0  0  0  0  0  0
   18.4162   37.8505   -6.9932 H   0  0  0  0  0  0  0  0  0  0  0  0
   18.0166   37.2875   -9.3734 H   0  0  0  0  0  0  0  0  0  0  0  0
   19.4663   38.2391  -11.1423 H   0  0  0  0  0  0  0  0  0  0  0  0
   22.2274   40.0935   -5.9012 H   0  0  0  0  0  0  0  0  0  0  0  0
   20.9451   41.2913   -6.1444 H   0  0  0  0  0  0  0  0  0  0  0  0
   20.0604   40.8287   -3.8654 H   0  0  0  0  0  0  0  0  0  0  0  0
   21.2639   39.5916   -3.6403 H   0  0  0  0  0  0  0  0  0  0  0  0
   21.9172   41.5403   -2.4065 H   0  0  0  0  0  0  0  0  0  0  0  0
   23.0907   41.2716   -3.6604 H   0  0  0  0  0  0  0  0  0  0  0  0
   20.7845   43.2604   -3.9507 H   0  0  0  0  0  0  0  0  0  0  0  0
   22.3331   43.7127   -3.2447 H   0  0  0  0  0  0  0  0  0  0  0  0
  1  2  1  0  0  0  0
  1 35  1  0  0  0  0
  1 36  1  0  0  0  0
  1 37  1  0  0  0  0
  2  3  1  0  0  0  0
  2  4  1  0  0  0  0
  3 38  1  0  0  0  0
  3 39  1  0  0  0  0
  3 40  1  0  0  0  0
  4  5  2  0  0  0  0
  4  6  1  0  0  0  0
  6  7  1  0  0  0  0
  6  8  2  0  0  0  0
  7 11  2  0  0  0  0
  7 41  1  0  0  0  0
  8  9  1  0  0  0  0
  8 42  1  0  0  0  0
  9 10  2  0  0  0  0
  9 12  1  0  0  0  0
 10 11  1  0  0  0  0
 10 43  1  0  0  0  0
 11 32  1  0  0  0  0
 12 13  2  0  0  0  0
 12 14  1  0  0  0  0
 14 15  1  0  0  0  0
 14 44  1  0  0  0  0
 15 33  1  6  0  0  0
 15 16  1  0  0  0  0
 15 20  1  0  0  0  0
 16 34  1  6  0  0  0
 16 17  1  0  0  0  0
 16 18  1  0  0  0  0
 17 45  1  0  0  0  0
 18 19  1  0  0  0  0
 18 46  1  0  0  0  0
 18 47  1  0  0  0  0
 19 48  1  0  0  0  0
 20 21  1  0  0  0  0
 20 49  1  0  0  0  0
 20 50  1  0  0  0  0
 21 26  1  0  0  0  0
 21 22  2  0  0  0  0
 22 23  1  0  0  0  0
 22 51  1  0  0  0  0
 23 24  2  0  0  0  0
 23 27  1  0  0  0  0
 24 25  1  0  0  0  0
 24 52  1  0  0  0  0
 25 26  2  0  0  0  0
 25 53  1  0  0  0  0
 26 54  1  0  0  0  0
 27 28  1  0  0  0  0
 28 29  1  0  0  0  0
 28 55  1  0  0  0  0
 28 56  1  0  0  0  0
 29 30  1  0  0  0  0
 29 57  1  0  0  0  0
 29 58  1  0  0  0  0
 30 31  1  0  0  0  0
 30 59  1  0  0  0  0
 30 60  1  0  0  0  0
 31 32  1  0  0  0  0
 31 61  1  0  0  0  0
 31 62  1  0  0  0  0
M  END
>  <s_m_source_file>
BACE_17.smi

>  <i_m_source_file_index>
1

>  <i_lp_mmshare_version>
42013

>  <i_f3d_flags>
0

>  <s_epik_input>
W0NIM11OKFtDSDNdKUMoPU8pYyhbY0hdYzEyKVtjSF1jKFtjSF0xKU9bQ0gyXVtDSDJdW0NIMl1bQ0gyXU9jM1tjSF1jKFtjSF1bY0hdW2NIXTMpW0NIMl1bQ0BIXShbTkhdQzI9TylbQ0BASF0oW09IXSlbQ0gyXVtPSF0=

>  <s_epik_cmdline>
J2VwaWtfcHl0aG9uJywgJy1waCcsICc3LjAnLCAnLXRuJywgJzgnLCAnLW1hJywgJzIwMCcsICctaW1hZScsICc8aW5maWxlLm1hZT4nLCAnLW9tYWUnLCAnPG91dGZpbGUubWFlPic=

>  <r_lp_tautomer_probability>
1

>  <r_epik_Ionization_Penalty>
0

>  <r_epik_Ionization_Penalty_Charging>
0

>  <r_epik_Ionization_Penalty_Neutral>
0

>  <r_epik_State_Penalty>
-0

>  <r_epik_Charging_Adjusted_Penalty>
0

>  <i_epik_Tot_Q>
0

>  <i_epik_Tot_abs_Q>
0

>  <s_lp_Force_Field>
OPLS_2005

>  <r_lp_Energy>
47.913

>  <b_lp_Chiralities_Consistent>
1

>  <s_lp_Variant>
BACE_17.smi:1-1

>  <chiral flag>
1

>  <version>
0

>  <r_i_glide_lipo>
-0.567811

>  <r_i_glide_hbond>
0

>  <r_i_glide_metal>
-0

>  <r_i_glide_rewards>
-0.490634

>  <r_i_glide_erotb>
0.306172

>  <r_i_glide_esite>
-0.00811059

>  <s_i_glide_gridfile>
second_dock_grid_2

>  <i_i_glide_lignum>
34

>  <i_i_glide_rotatable_bonds>
6

>  <r_i_docking_score>
-3.87889

>  <r_i_glide_ligand_efficiency>
-0.121215

>  <r_i_glide_ligand_efficiency_sa>
-0.384834

>  <r_i_glide_ligand_efficiency_ln>
-0.868588

>  <r_glide_XP_GScore>
-3.87889

>  <r_i_glide_gscore>
-3.87889

>  <r_i_glide_evdw>
-35.8972

>  <r_i_glide_ecoul>
-3.7169

>  <r_i_glide_energy>
-39.614

>  <r_i_glide_einternal>
5.62912

>  <r_i_glide_emodel>
-51.2415

>  <r_glide_XP_HBond>
-1.21716

>  <i_i_glide_confnum>
1

>  <i_i_glide_posenum>
10

>  <r_i_glide_eff_state_penalty>
-0

>  <i_glide_XP_PoseRank>
8

>  <chiral flag>
1

$$$$
