BACE_9.smi:1
 OpenBabel10031817133D
Structure written by MMmdl.
 87 89  0  0  1  0  0  0  0  0999 V2000
   20.3942   46.3099   -6.6565 C   0  0  0  0  0  0  0  0  0  0  0  0
   20.3373   44.9865   -7.4365 C   0  0  2  0  0  0  0  0  0  0  0  0
   21.7513   44.3678   -7.5287 C   0  0  0  0  0  0  0  0  0  0  0  0
   21.7766   42.9633   -8.1472 C   0  0  0  0  0  0  0  0  0  0  0  0
   23.1359   42.2563   -8.0399 C   0  0  0  0  0  0  0  0  0  0  0  0
   23.0849   40.8294   -8.6067 C   0  0  0  0  0  0  0  0  0  0  0  0
   22.3769   39.8350   -7.6692 C   0  0  0  0  0  0  0  0  0  0  0  0
   22.0598   38.4727   -8.3061 C   0  0  0  0  0  0  0  0  0  0  0  0
   20.6849   38.3863   -8.9902 C   0  0  0  0  0  0  0  0  0  0  0  0
   20.6084   39.1672  -10.2176 N   0  0  0  0  0  0  0  0  0  0  0  0
   19.3867   39.8043  -10.4715 C   0  0  0  0  0  0  0  0  0  0  0  0
   18.1470   39.1814  -10.2040 C   0  0  0  0  0  0  0  0  0  0  0  0
   16.9314   39.8751  -10.4049 C   0  0  0  0  0  0  0  0  0  0  0  0
   16.9650   41.1863  -10.9173 C   0  0  0  0  0  0  0  0  0  0  0  0
   18.1981   41.8178  -11.1833 C   0  0  0  0  0  0  0  0  0  0  0  0
   19.4053   41.1201  -10.9739 C   0  0  0  0  0  0  0  0  0  0  0  0
   18.2204   43.2392  -11.6452 C   0  0  0  0  0  0  0  0  0  0  0  0
   17.9213   43.5156  -12.8064 O   0  0  0  0  0  0  0  0  0  0  0  0
   18.5575   44.1820  -10.7449 N   0  0  0  0  0  0  0  0  0  0  0  0
   18.7594   44.0327   -9.2912 C   0  0  1  0  0  0  0  0  0  0  0  0
   19.6740   45.1922   -8.8246 C   0  0  0  0  0  0  0  0  0  0  0  0
   17.4170   43.9949   -8.4869 C   0  0  1  0  0  0  0  0  0  0  0  0
   16.2347   44.6886   -9.1949 C   0  0  0  0  0  0  0  0  0  0  0  0
   14.9563   44.5597   -8.4915 N   0  0  0  0  0  0  0  0  0  0  0  0
   14.1023   43.4848   -9.0268 C   0  0  0  0  0  0  0  0  0  0  0  0
   13.5573   43.6795  -10.4480 C   0  0  0  0  0  0  0  0  0  0  0  0
   12.7806   42.6484  -11.0093 C   0  0  0  0  0  0  0  0  0  0  0  0
   12.2493   42.7833  -12.3066 C   0  0  0  0  0  0  0  0  0  0  0  0
   12.4781   43.9530  -13.0527 C   0  0  0  0  0  0  0  0  0  0  0  0
   13.2318   45.0179  -12.5047 C   0  0  0  0  0  0  0  0  0  0  0  0
   13.7857   44.8486  -11.2158 C   0  0  0  0  0  0  0  0  0  0  0  0
   13.4037   46.3653  -13.2253 C   0  0  0  0  0  0  0  0  0  0  0  0
   12.8000   46.4439  -14.6445 C   0  0  0  0  0  0  0  0  0  0  0  0
   14.8626   46.8713  -13.2136 C   0  0  0  0  0  0  0  0  0  0  0  0
   17.1153   42.6461   -8.1843 O   0  0  0  0  0  0  0  0  0  0  0  0
   15.5827   39.2603  -10.0489 C   0  0  0  0  0  0  0  0  0  0  0  0
   15.6274   37.8653   -9.7934 O   0  0  0  0  0  0  0  0  0  0  0  0
   15.9003   37.5230   -8.4418 C   0  0  0  0  0  0  0  0  0  0  0  0
   19.7212   44.3083   -6.8464 H   0  0  0  0  0  0  0  0  0  0  0  0
   19.2973   43.1058   -9.1138 H   0  0  0  0  0  0  0  0  0  0  0  0
   17.5610   44.4743   -7.5187 H   0  0  0  0  0  0  0  0  0  0  0  0
   20.9978   47.0522   -7.1795 H   0  0  0  0  0  0  0  0  0  0  0  0
   20.8298   46.1624   -5.6680 H   0  0  0  0  0  0  0  0  0  0  0  0
   19.3971   46.7270   -6.5136 H   0  0  0  0  0  0  0  0  0  0  0  0
   22.4164   45.0264   -8.0909 H   0  0  0  0  0  0  0  0  0  0  0  0
   22.1689   44.3052   -6.5214 H   0  0  0  0  0  0  0  0  0  0  0  0
   21.0080   42.3605   -7.6632 H   0  0  0  0  0  0  0  0  0  0  0  0
   21.5105   43.0242   -9.2016 H   0  0  0  0  0  0  0  0  0  0  0  0
   23.8803   42.8328   -8.5866 H   0  0  0  0  0  0  0  0  0  0  0  0
   23.4701   42.2310   -7.0028 H   0  0  0  0  0  0  0  0  0  0  0  0
   22.6051   40.8533   -9.5844 H   0  0  0  0  0  0  0  0  0  0  0  0
   24.1009   40.4734   -8.7870 H   0  0  0  0  0  0  0  0  0  0  0  0
   23.0248   39.6758   -6.8075 H   0  0  0  0  0  0  0  0  0  0  0  0
   21.4558   40.2521   -7.2633 H   0  0  0  0  0  0  0  0  0  0  0  0
   22.8580   38.1587   -8.9769 H   0  0  0  0  0  0  0  0  0  0  0  0
   22.0507   37.7504   -7.4934 H   0  0  0  0  0  0  0  0  0  0  0  0
   20.4716   37.3481   -9.2417 H   0  0  0  0  0  0  0  0  0  0  0  0
   19.9159   38.6990   -8.2814 H   0  0  0  0  0  0  0  0  0  0  0  0
   21.4395   39.6956  -10.4398 H   0  0  0  0  0  0  0  0  0  0  0  0
   18.1325   38.1674   -9.8350 H   0  0  0  0  0  0  0  0  0  0  0  0
   16.0427   41.7296  -11.0559 H   0  0  0  0  0  0  0  0  0  0  0  0
   20.3473   41.6102  -11.1674 H   0  0  0  0  0  0  0  0  0  0  0  0
   18.5967   45.1279  -11.0964 H   0  0  0  0  0  0  0  0  0  0  0  0
   19.0775   46.1050   -8.8218 H   0  0  0  0  0  0  0  0  0  0  0  0
   20.4588   45.3705   -9.5611 H   0  0  0  0  0  0  0  0  0  0  0  0
   16.4782   45.7464   -9.2963 H   0  0  0  0  0  0  0  0  0  0  0  0
   16.1334   44.3066  -10.2064 H   0  0  0  0  0  0  0  0  0  0  0  0
   15.1484   44.3552   -7.5136 H   0  0  0  0  0  0  0  0  0  0  0  0
   14.6270   42.5307   -8.9893 H   0  0  0  0  0  0  0  0  0  0  0  0
   13.2390   43.3657   -8.3730 H   0  0  0  0  0  0  0  0  0  0  0  0
   12.5904   41.7501  -10.4347 H   0  0  0  0  0  0  0  0  0  0  0  0
   11.6567   41.9904  -12.7343 H   0  0  0  0  0  0  0  0  0  0  0  0
   12.0515   44.0213  -14.0408 H   0  0  0  0  0  0  0  0  0  0  0  0
   14.3750   45.6456  -10.7974 H   0  0  0  0  0  0  0  0  0  0  0  0
   12.8263   47.0741  -12.6322 H   0  0  0  0  0  0  0  0  0  0  0  0
   11.7315   46.2393  -14.6456 H   0  0  0  0  0  0  0  0  0  0  0  0
   13.2599   45.7500  -15.3442 H   0  0  0  0  0  0  0  0  0  0  0  0
   12.9249   47.4436  -15.0622 H   0  0  0  0  0  0  0  0  0  0  0  0
   15.2124   47.0883  -12.2043 H   0  0  0  0  0  0  0  0  0  0  0  0
   14.9608   47.7954  -13.7829 H   0  0  0  0  0  0  0  0  0  0  0  0
   15.5568   46.1503  -13.6399 H   0  0  0  0  0  0  0  0  0  0  0  0
   16.5476   42.6059   -7.4282 H   0  0  0  0  0  0  0  0  0  0  0  0
   15.1344   39.7980   -9.2129 H   0  0  0  0  0  0  0  0  0  0  0  0
   14.9187   39.4072  -10.9013 H   0  0  0  0  0  0  0  0  0  0  0  0
   16.0656   36.4473   -8.4146 H   0  0  0  0  0  0  0  0  0  0  0  0
   15.0571   37.7609   -7.7901 H   0  0  0  0  0  0  0  0  0  0  0  0
   16.7922   38.0165   -8.0532 H   0  0  0  0  0  0  0  0  0  0  0  0
  1  2  1  0  0  0  0
  1 42  1  0  0  0  0
  1 43  1  0  0  0  0
  1 44  1  0  0  0  0
  2 39  1  1  0  0  0
  2 21  1  0  0  0  0
  2  3  1  0  0  0  0
  3  4  1  0  0  0  0
  3 45  1  0  0  0  0
  3 46  1  0  0  0  0
  4  5  1  0  0  0  0
  4 47  1  0  0  0  0
  4 48  1  0  0  0  0
  5  6  1  0  0  0  0
  5 49  1  0  0  0  0
  5 50  1  0  0  0  0
  6  7  1  0  0  0  0
  6 51  1  0  0  0  0
  6 52  1  0  0  0  0
  7  8  1  0  0  0  0
  7 53  1  0  0  0  0
  7 54  1  0  0  0  0
  8  9  1  0  0  0  0
  8 55  1  0  0  0  0
  8 56  1  0  0  0  0
  9 10  1  0  0  0  0
  9 57  1  0  0  0  0
  9 58  1  0  0  0  0
 10 11  1  0  0  0  0
 10 59  1  0  0  0  0
 11 16  1  0  0  0  0
 11 12  2  0  0  0  0
 12 13  1  0  0  0  0
 12 60  1  0  0  0  0
 13 14  2  0  0  0  0
 13 36  1  0  0  0  0
 14 15  1  0  0  0  0
 14 61  1  0  0  0  0
 15 16  2  0  0  0  0
 15 17  1  0  0  0  0
 16 62  1  0  0  0  0
 17 18  2  0  0  0  0
 17 19  1  0  0  0  0
 19 20  1  0  0  0  0
 19 63  1  0  0  0  0
 20 40  1  1  0  0  0
 20 21  1  0  0  0  0
 20 22  1  0  0  0  0
 21 64  1  0  0  0  0
 21 65  1  0  0  0  0
 22 41  1  1  0  0  0
 22 23  1  0  0  0  0
 22 35  1  0  0  0  0
 23 24  1  0  0  0  0
 23 66  1  0  0  0  0
 23 67  1  0  0  0  0
 24 25  1  0  0  0  0
 24 68  1  0  0  0  0
 25 26  1  0  0  0  0
 25 69  1  0  0  0  0
 25 70  1  0  0  0  0
 26 31  1  0  0  0  0
 26 27  2  0  0  0  0
 27 28  1  0  0  0  0
 27 71  1  0  0  0  0
 28 29  2  0  0  0  0
 28 72  1  0  0  0  0
 29 30  1  0  0  0  0
 29 73  1  0  0  0  0
 30 31  2  0  0  0  0
 30 32  1  0  0  0  0
 31 74  1  0  0  0  0
 32 33  1  0  0  0  0
 32 34  1  0  0  0  0
 32 75  1  0  0  0  0
 33 76  1  0  0  0  0
 33 77  1  0  0  0  0
 33 78  1  0  0  0  0
 34 79  1  0  0  0  0
 34 80  1  0  0  0  0
 34 81  1  0  0  0  0
 35 82  1  0  0  0  0
 36 37  1  0  0  0  0
 36 83  1  0  0  0  0
 36 84  1  0  0  0  0
 37 38  1  0  0  0  0
 38 85  1  0  0  0  0
 38 86  1  0  0  0  0
 38 87  1  0  0  0  0
M  END
>  <s_m_source_file>
BACE_9.smi

>  <i_m_source_file_index>
1

>  <i_lp_mmshare_version>
42013

>  <i_f3d_flags>
0

>  <s_epik_input>
W05IXTFbQ0gyXVtDSDJdW0NIMl1bQ0gyXVtDSDJdW0NIMl1bQ0gyXVtDQEBIXShbQ0gzXSlbQ0gyXVtDQEhdKFtOSF1DKD1PKWMoW2NIXTIpW2NIXWMoW2NIXWMxMilbQ0gyXU9bQ0gzXSlbQ0BIXShbT0hdKVtDSDJdW05IXVtDSDJdYzNbY0hdW2NIXVtjSF1jKFtjSF0zKVtDSF0oW0NIM10pW0NIM10=

>  <s_epik_cmdline>
J2VwaWtfcHl0aG9uJywgJy1waCcsICc3LjAnLCAnLXRuJywgJzgnLCAnLW1hJywgJzIwMCcsICctaW1hZScsICc8aW5maWxlLm1hZT4nLCAnLW9tYWUnLCAnPG91dGZpbGUubWFlPic=

>  <r_epik_Ionization_Penalty>
2.13

>  <r_epik_Ionization_Penalty_Charging>
0

>  <r_epik_Ionization_Penalty_Neutral>
2.13

>  <r_epik_State_Penalty>
2.2676

>  <r_epik_Charging_Adjusted_Penalty>
2.26762

>  <i_epik_Tot_Q>
0

>  <i_epik_Tot_abs_Q>
0

>  <s_lp_Force_Field>
OPLS_2005

>  <r_lp_Energy>
47.2954

>  <b_lp_Chiralities_Consistent>
1

>  <s_lp_Variant>
BACE_9.smi:1-2

>  <chiral flag>
1

>  <version>
0

>  <r_i_glide_lipo>
-0.947222

>  <r_i_glide_hbond>
-0.319819

>  <r_i_glide_metal>
-0

>  <r_i_glide_rewards>
0

>  <r_i_glide_erotb>
0.44997

>  <r_i_glide_esite>
-0.00440583

>  <s_i_glide_gridfile>
second_dock_grid_2

>  <i_i_glide_lignum>
19

>  <i_i_glide_rotatable_bonds>
9

>  <r_i_docking_score>
-0.928837

>  <r_i_glide_ligand_efficiency>
-0.0244431

>  <r_i_glide_ligand_efficiency_sa>
-0.082177

>  <r_i_glide_ligand_efficiency_ln>
-0.200285

>  <r_glide_XP_GScore>
-3.19644

>  <r_i_glide_gscore>
-3.19644

>  <r_i_glide_evdw>
-36.7251

>  <r_i_glide_ecoul>
-9.21334

>  <r_i_glide_energy>
-45.9385

>  <r_i_glide_einternal>
11.0357

>  <r_i_glide_emodel>
-58.3751

>  <r_glide_XP_HBond>
-1.62339

>  <i_i_glide_confnum>
1

>  <i_i_glide_posenum>
3

>  <r_i_glide_eff_state_penalty>
2.2676

>  <i_glide_XP_PoseRank>
4

>  <chiral flag>
1

$$$$
