BACE_6.smi:1
 OpenBabel10031817133D
Structure written by MMmdl.
 83 85  0  0  1  0  0  0  0  0999 V2000
   16.8684   52.0162   -9.9282 C   0  0  0  0  0  0  0  0  0  0  0  0
   17.9580   51.0915  -10.4943 C   0  0  0  0  0  0  0  0  0  0  0  0
   17.7433   49.6882  -10.1072 N   0  0  0  0  0  0  0  0  0  0  0  0
   16.9163   48.9362  -11.0698 C   0  0  0  0  0  0  0  0  0  0  0  0
   17.6212   47.7975  -11.8325 C   0  0  0  0  0  0  0  0  0  0  0  0
   16.7540   47.2226  -12.9714 C   0  0  0  0  0  0  0  0  0  0  0  0
   15.4235   46.5538  -12.5534 C   0  0  0  0  0  0  0  0  0  0  0  0
   15.5565   45.1062  -12.0378 C   0  0  0  0  0  0  0  0  0  0  0  0
   14.2415   44.4741  -11.4944 C   0  0  2  0  0  0  0  0  0  0  0  0
   14.4476   43.0150  -11.0000 C   0  0  0  0  0  0  0  0  0  0  0  0
   14.7400   42.7977   -9.4880 C   0  0  2  0  0  0  0  0  0  0  0  0
   15.8457   43.6626   -9.0646 N   0  0  0  0  0  0  0  0  0  0  0  0
   15.7438   44.8494   -8.4396 C   0  0  0  0  0  0  0  0  0  0  0  0
   14.6856   45.3418   -8.0400 O   0  0  0  0  0  0  0  0  0  0  0  0
   17.0240   45.6245   -8.3624 C   0  0  0  0  0  0  0  0  0  0  0  0
   18.2537   44.9892   -8.0816 C   0  0  0  0  0  0  0  0  0  0  0  0
   19.4470   45.7354   -8.0431 C   0  0  0  0  0  0  0  0  0  0  0  0
   19.4223   47.1160   -8.3122 C   0  0  0  0  0  0  0  0  0  0  0  0
   18.2039   47.7663   -8.6093 C   0  0  0  0  0  0  0  0  0  0  0  0
   17.0052   47.0181   -8.5789 C   0  0  0  0  0  0  0  0  0  0  0  0
   18.2161   49.2403   -8.9099 C   0  0  0  0  0  0  0  0  0  0  0  0
   18.7425   49.9895   -8.0822 O   0  0  0  0  0  0  0  0  0  0  0  0
   15.0962   41.3060   -9.2089 C   0  0  1  0  0  0  0  0  0  0  0  0
   15.4311   40.9521   -7.7357 C   0  0  0  0  0  0  0  0  0  0  0  0
   16.6987   40.1946   -7.6149 N   0  3  0  0  0  0  0  0  0  0  0  0
   17.8962   41.0062   -7.9200 C   0  0  0  0  0  0  0  0  0  0  0  0
   19.2034   40.2960   -7.6409 C   0  0  0  0  0  0  0  0  0  0  0  0
   19.6087   39.1905   -8.4157 C   0  0  0  0  0  0  0  0  0  0  0  0
   20.8606   38.5903   -8.1754 C   0  0  0  0  0  0  0  0  0  0  0  0
   21.7037   39.0888   -7.1625 C   0  0  0  0  0  0  0  0  0  0  0  0
   21.3122   40.2011   -6.3886 C   0  0  0  0  0  0  0  0  0  0  0  0
   20.0603   40.7971   -6.6401 C   0  0  0  0  0  0  0  0  0  0  0  0
   22.2364   40.7722   -5.3187 C   0  0  0  0  0  0  0  0  0  0  0  0
   21.5879   40.7575   -3.9250 C   0  0  0  0  0  0  0  0  0  0  0  0
   22.7245   42.1814   -5.6913 C   0  0  0  0  0  0  0  0  0  0  0  0
   14.0614   40.4465   -9.6400 O   0  0  0  0  0  0  0  0  0  0  0  0
   13.0997   44.5194  -12.5290 C   0  0  0  0  0  0  0  0  0  0  0  0
   13.9026   45.0664  -10.6483 H   0  0  0  0  0  0  0  0  0  0  0  0
   13.8457   43.0500   -8.9151 H   0  0  0  0  0  0  0  0  0  0  0  0
   15.9377   41.0520   -9.8548 H   0  0  0  0  0  0  0  0  0  0  0  0
   17.0595   53.0520  -10.2081 H   0  0  0  0  0  0  0  0  0  0  0  0
   16.8323   51.9685   -8.8405 H   0  0  0  0  0  0  0  0  0  0  0  0
   15.8816   51.7524  -10.3081 H   0  0  0  0  0  0  0  0  0  0  0  0
   17.9954   51.1868  -11.5805 H   0  0  0  0  0  0  0  0  0  0  0  0
   18.9390   51.4343  -10.1569 H   0  0  0  0  0  0  0  0  0  0  0  0
   16.0601   48.5485  -10.5398 H   0  0  0  0  0  0  0  0  0  0  0  0
   16.4851   49.6202  -11.8011 H   0  0  0  0  0  0  0  0  0  0  0  0
   18.5444   48.1855  -12.2645 H   0  0  0  0  0  0  0  0  0  0  0  0
   17.9210   46.9934  -11.1635 H   0  0  0  0  0  0  0  0  0  0  0  0
   16.5250   48.0362  -13.6616 H   0  0  0  0  0  0  0  0  0  0  0  0
   17.3494   46.5168  -13.5511 H   0  0  0  0  0  0  0  0  0  0  0  0
   14.9012   47.1601  -11.8160 H   0  0  0  0  0  0  0  0  0  0  0  0
   14.7797   46.5500  -13.4321 H   0  0  0  0  0  0  0  0  0  0  0  0
   15.9552   44.4854  -12.8399 H   0  0  0  0  0  0  0  0  0  0  0  0
   16.3191   45.0900  -11.2634 H   0  0  0  0  0  0  0  0  0  0  0  0
   13.5501   42.4375  -11.2304 H   0  0  0  0  0  0  0  0  0  0  0  0
   15.2333   42.5465  -11.5928 H   0  0  0  0  0  0  0  0  0  0  0  0
   16.7659   43.4050   -9.3845 H   0  0  0  0  0  0  0  0  0  0  0  0
   18.3005   43.9319   -7.8868 H   0  0  0  0  0  0  0  0  0  0  0  0
   20.3844   45.2444   -7.8235 H   0  0  0  0  0  0  0  0  0  0  0  0
   20.3466   47.6761   -8.2964 H   0  0  0  0  0  0  0  0  0  0  0  0
   16.0599   47.5032   -8.7509 H   0  0  0  0  0  0  0  0  0  0  0  0
   15.4992   41.8449   -7.1168 H   0  0  0  0  0  0  0  0  0  0  0  0
   14.6324   40.3602   -7.2820 H   0  0  0  0  0  0  0  0  0  0  0  0
   16.7769   39.8993   -6.6489 H   0  0  0  0  0  0  0  0  0  0  0  0
   17.9072   41.3313   -8.9590 H   0  0  0  0  0  0  0  0  0  0  0  0
   17.8495   41.9038   -7.3033 H   0  0  0  0  0  0  0  0  0  0  0  0
   18.9743   38.8068   -9.2015 H   0  0  0  0  0  0  0  0  0  0  0  0
   21.1785   37.7495   -8.7743 H   0  0  0  0  0  0  0  0  0  0  0  0
   22.6613   38.6228   -6.9920 H   0  0  0  0  0  0  0  0  0  0  0  0
   19.7611   41.6598   -6.0614 H   0  0  0  0  0  0  0  0  0  0  0  0
   23.1181   40.1354   -5.2666 H   0  0  0  0  0  0  0  0  0  0  0  0
   21.2875   39.7500   -3.6430 H   0  0  0  0  0  0  0  0  0  0  0  0
   20.7029   41.3924   -3.8796 H   0  0  0  0  0  0  0  0  0  0  0  0
   22.2866   41.1119   -3.1669 H   0  0  0  0  0  0  0  0  0  0  0  0
   23.2369   42.1761   -6.6548 H   0  0  0  0  0  0  0  0  0  0  0  0
   23.4274   42.5614   -4.9475 H   0  0  0  0  0  0  0  0  0  0  0  0
   21.8984   42.8897   -5.7550 H   0  0  0  0  0  0  0  0  0  0  0  0
   13.2987   40.5505   -9.0740 H   0  0  0  0  0  0  0  0  0  0  0  0
   13.3400   43.9475  -13.4243 H   0  0  0  0  0  0  0  0  0  0  0  0
   12.8605   45.5370  -12.8340 H   0  0  0  0  0  0  0  0  0  0  0  0
   12.1831   44.0989  -12.1131 H   0  0  0  0  0  0  0  0  0  0  0  0
   16.6638   39.3703   -8.1977 H   0  0  0  0  0  0  0  0  0  0  0  0
  1  2  1  0  0  0  0
  1 41  1  0  0  0  0
  1 42  1  0  0  0  0
  1 43  1  0  0  0  0
  2  3  1  0  0  0  0
  2 44  1  0  0  0  0
  2 45  1  0  0  0  0
  3 21  1  0  0  0  0
  3  4  1  0  0  0  0
  4  5  1  0  0  0  0
  4 46  1  0  0  0  0
  4 47  1  0  0  0  0
  5  6  1  0  0  0  0
  5 48  1  0  0  0  0
  5 49  1  0  0  0  0
  6  7  1  0  0  0  0
  6 50  1  0  0  0  0
  6 51  1  0  0  0  0
  7  8  1  0  0  0  0
  7 52  1  0  0  0  0
  7 53  1  0  0  0  0
  8  9  1  0  0  0  0
  8 54  1  0  0  0  0
  8 55  1  0  0  0  0
  9 38  1  1  0  0  0
  9 10  1  0  0  0  0
  9 37  1  0  0  0  0
 10 11  1  0  0  0  0
 10 56  1  0  0  0  0
 10 57  1  0  0  0  0
 11 39  1  1  0  0  0
 11 12  1  0  0  0  0
 11 23  1  0  0  0  0
 12 13  1  0  0  0  0
 12 58  1  0  0  0  0
 13 14  2  0  0  0  0
 13 15  1  0  0  0  0
 15 20  1  0  0  0  0
 15 16  2  0  0  0  0
 16 17  1  0  0  0  0
 16 59  1  0  0  0  0
 17 18  2  0  0  0  0
 17 60  1  0  0  0  0
 18 19  1  0  0  0  0
 18 61  1  0  0  0  0
 19 20  2  0  0  0  0
 19 21  1  0  0  0  0
 20 62  1  0  0  0  0
 21 22  2  0  0  0  0
 23 40  1  6  0  0  0
 23 24  1  0  0  0  0
 23 36  1  0  0  0  0
 24 25  1  0  0  0  0
 24 63  1  0  0  0  0
 24 64  1  0  0  0  0
 25 26  1  0  0  0  0
 25 65  1  0  0  0  0
 25 83  1  0  0  0  0
 26 27  1  0  0  0  0
 26 66  1  0  0  0  0
 26 67  1  0  0  0  0
 27 32  1  0  0  0  0
 27 28  2  0  0  0  0
 28 29  1  0  0  0  0
 28 68  1  0  0  0  0
 29 30  2  0  0  0  0
 29 69  1  0  0  0  0
 30 31  1  0  0  0  0
 30 70  1  0  0  0  0
 31 32  2  0  0  0  0
 31 33  1  0  0  0  0
 32 71  1  0  0  0  0
 33 34  1  0  0  0  0
 33 35  1  0  0  0  0
 33 72  1  0  0  0  0
 34 73  1  0  0  0  0
 34 74  1  0  0  0  0
 34 75  1  0  0  0  0
 35 76  1  0  0  0  0
 35 77  1  0  0  0  0
 35 78  1  0  0  0  0
 36 79  1  0  0  0  0
 37 80  1  0  0  0  0
 37 81  1  0  0  0  0
 37 82  1  0  0  0  0
M  CHG  1  25   1
M  END
>  <s_m_source_file>
BACE_6.smi

>  <i_m_source_file_index>
1

>  <i_lp_mmshare_version>
42013

>  <i_f3d_flags>
0

>  <s_epik_input>
YzEyW2NIXVtjSF1bY0hdYyhbY0hdMilDKD1PKU4oW0NIMl1bQ0gzXSlbQ0gyXVtDSDJdW0NIMl1bQ0gyXVtDSDJdW0NAQEhdKFtDSDNdKVtDSDJdW0NASF0oW05IXUMxPU8pW0NASF0oW09IXSlbQ0gyXVtOSF1bQ0gyXWMzW2NIXVtjSF1bY0hdYyhbY0hdMylbQ0hdKFtDSDNdKVtDSDNd

>  <s_epik_cmdline>
J2VwaWtfcHl0aG9uJywgJy1waCcsICc3LjAnLCAnLXRuJywgJzgnLCAnLW1hJywgJzIwMCcsICctaW1hZScsICc8aW5maWxlLm1hZT4nLCAnLW9tYWUnLCAnPG91dGZpbGUubWFlPic=

>  <r_epik_Ionization_Penalty>
0.0165

>  <r_epik_Ionization_Penalty_Charging>
0.0165

>  <r_epik_Ionization_Penalty_Neutral>
0

>  <r_epik_State_Penalty>
0.013

>  <r_epik_Charging_Adjusted_Penalty>
0.0295552

>  <i_epik_Tot_Q>
1

>  <i_epik_Tot_abs_Q>
1

>  <s_lp_Force_Field>
OPLS_2005

>  <r_lp_Energy>
42.7267

>  <b_lp_Chiralities_Consistent>
1

>  <s_lp_Variant>
BACE_6.smi:1-1

>  <chiral flag>
1

>  <version>
0

>  <r_i_glide_lipo>
-0.959692

>  <r_i_glide_hbond>
-0.531466

>  <r_i_glide_metal>
-0

>  <r_i_glide_rewards>
0

>  <r_i_glide_erotb>
0.395592

>  <r_i_glide_esite>
-0.02202

>  <s_i_glide_gridfile>
second_dock_grid_2

>  <i_i_glide_lignum>
12

>  <i_i_glide_rotatable_bonds>
8

>  <r_i_docking_score>
-3.7161

>  <r_i_glide_ligand_efficiency>
-0.100435

>  <r_i_glide_ligand_efficiency_sa>
-0.334672

>  <r_i_glide_ligand_efficiency_ln>
-0.805935

>  <r_glide_XP_GScore>
-3.7291

>  <r_i_glide_gscore>
-3.7291

>  <r_i_glide_evdw>
-35.1841

>  <r_i_glide_ecoul>
-15.2149

>  <r_i_glide_energy>
-50.399

>  <r_i_glide_einternal>
4.3282

>  <r_i_glide_emodel>
-59.9894

>  <r_glide_XP_HBond>
-0.536938

>  <i_i_glide_confnum>
1

>  <i_i_glide_posenum>
15

>  <r_i_glide_eff_state_penalty>
0.013

>  <i_glide_XP_PoseRank>
3

>  <chiral flag>
1

$$$$
