BACE_10.smi:1
 OpenBabel10031817133D
Structure written by MMmdl.
 85 87  0  0  1  0  0  0  0  0999 V2000
   22.5908   40.9523   -9.5060 C   0  0  0  0  0  0  0  0  0  0  0  0
   21.1593   41.3735   -9.8938 C   0  0  2  0  0  0  0  0  0  0  0  0
   20.6315   40.5134  -11.0674 C   0  0  0  0  0  0  0  0  0  0  0  0
   20.3805   39.0394  -10.7170 C   0  0  0  0  0  0  0  0  0  0  0  0
   19.4171   38.9619   -9.6791 O   0  0  0  0  0  0  0  0  0  0  0  0
   18.9226   37.6480   -9.4666 C   0  0  0  0  0  0  0  0  0  0  0  0
   17.9132   37.6280   -8.3088 C   0  0  0  0  0  0  0  0  0  0  0  0
   16.7039   38.5565   -8.5185 C   0  0  0  0  0  0  0  0  0  0  0  0
   16.9134   39.9519   -7.9163 C   0  0  0  0  0  0  0  0  0  0  0  0
   15.7776   40.8248   -8.1801 N   0  0  0  0  0  0  0  0  0  0  0  0
   15.7587   41.7716   -9.2165 C   0  0  0  0  0  0  0  0  0  0  0  0
   14.6036   42.5660   -9.3484 C   0  0  0  0  0  0  0  0  0  0  0  0
   14.5098   43.5366  -10.3628 C   0  0  0  0  0  0  0  0  0  0  0  0
   15.6032   43.7584  -11.2191 C   0  0  0  0  0  0  0  0  0  0  0  0
   16.7808   42.9943  -11.0856 C   0  0  0  0  0  0  0  0  0  0  0  0
   16.8295   41.9616  -10.1208 C   0  0  0  0  0  0  0  0  0  0  0  0
   17.9102   43.2395  -12.0430 C   0  0  0  0  0  0  0  0  0  0  0  0
   17.6610   43.3498  -13.2400 O   0  0  0  0  0  0  0  0  0  0  0  0
   19.1672   43.3889  -11.5963 N   0  0  0  0  0  0  0  0  0  0  0  0
   19.6981   43.5287  -10.2383 C   0  0  1  0  0  0  0  0  0  0  0  0
   21.1167   42.8967  -10.1852 C   0  0  0  0  0  0  0  0  0  0  0  0
   19.6252   45.0286   -9.8230 C   0  0  1  0  0  0  0  0  0  0  0  0
   20.1263   45.4269   -8.4088 C   0  0  0  0  0  0  0  0  0  0  0  0
   19.3127   44.9465   -7.2810 N   0  0  0  0  0  0  0  0  0  0  0  0
   19.5325   43.5783   -6.7918 C   0  0  0  0  0  0  0  0  0  0  0  0
   20.7089   43.3825   -5.8469 C   0  0  0  0  0  0  0  0  0  0  0  0
   22.0432   43.5095   -6.2914 C   0  0  0  0  0  0  0  0  0  0  0  0
   23.1153   43.2326   -5.4245 C   0  0  0  0  0  0  0  0  0  0  0  0
   22.8559   42.7746   -4.1225 C   0  0  0  0  0  0  0  0  0  0  0  0
   21.5332   42.6120   -3.6694 C   0  0  0  0  0  0  0  0  0  0  0  0
   20.4647   42.9593   -4.5219 C   0  0  0  0  0  0  0  0  0  0  0  0
   21.3008   42.0186   -2.2890 C   0  0  0  0  0  0  0  0  0  0  0  0
   20.2318   40.9260   -2.2766 C   0  0  0  0  0  0  0  0  0  0  0  0
   21.0201   43.0899   -1.2292 C   0  0  0  0  0  0  0  0  0  0  0  0
   20.4043   45.7713  -10.7430 O   0  0  0  0  0  0  0  0  0  0  0  0
   13.2318   44.3341  -10.5416 C   0  0  0  0  0  0  0  0  0  0  0  0
   12.3893   43.8435  -11.5751 O   0  0  0  0  0  0  0  0  0  0  0  0
   11.8608   42.5492  -11.3261 C   0  0  0  0  0  0  0  0  0  0  0  0
   20.5277   41.1887   -9.0233 H   0  0  0  0  0  0  0  0  0  0  0  0
   19.0630   42.9829   -9.5533 H   0  0  0  0  0  0  0  0  0  0  0  0
   18.5960   45.3744   -9.9281 H   0  0  0  0  0  0  0  0  0  0  0  0
   23.2812   41.0755  -10.3415 H   0  0  0  0  0  0  0  0  0  0  0  0
   22.6341   39.9108   -9.1906 H   0  0  0  0  0  0  0  0  0  0  0  0
   22.9715   41.5437   -8.6716 H   0  0  0  0  0  0  0  0  0  0  0  0
   19.6845   40.9031  -11.4269 H   0  0  0  0  0  0  0  0  0  0  0  0
   21.3254   40.5734  -11.9086 H   0  0  0  0  0  0  0  0  0  0  0  0
   20.0073   38.5382  -11.6100 H   0  0  0  0  0  0  0  0  0  0  0  0
   21.2988   38.5304  -10.4240 H   0  0  0  0  0  0  0  0  0  0  0  0
   18.4415   37.2871  -10.3760 H   0  0  0  0  0  0  0  0  0  0  0  0
   19.7417   36.9631   -9.2402 H   0  0  0  0  0  0  0  0  0  0  0  0
   17.5477   36.6037   -8.1924 H   0  0  0  0  0  0  0  0  0  0  0  0
   18.4108   37.8618   -7.3668 H   0  0  0  0  0  0  0  0  0  0  0  0
   16.4575   38.6226   -9.5766 H   0  0  0  0  0  0  0  0  0  0  0  0
   15.8357   38.1098   -8.0353 H   0  0  0  0  0  0  0  0  0  0  0  0
   17.0092   39.8572   -6.8341 H   0  0  0  0  0  0  0  0  0  0  0  0
   17.8533   40.3911   -8.2400 H   0  0  0  0  0  0  0  0  0  0  0  0
   15.0163   40.7943   -7.5138 H   0  0  0  0  0  0  0  0  0  0  0  0
   13.7681   42.4138   -8.6816 H   0  0  0  0  0  0  0  0  0  0  0  0
   15.5343   44.5153  -11.9873 H   0  0  0  0  0  0  0  0  0  0  0  0
   17.7039   41.3331  -10.0788 H   0  0  0  0  0  0  0  0  0  0  0  0
   19.8465   43.5584  -12.3215 H   0  0  0  0  0  0  0  0  0  0  0  0
   21.6806   43.3855   -9.3968 H   0  0  0  0  0  0  0  0  0  0  0  0
   21.6703   43.1211  -11.0997 H   0  0  0  0  0  0  0  0  0  0  0  0
   21.1756   45.1899   -8.2775 H   0  0  0  0  0  0  0  0  0  0  0  0
   20.0989   46.5153   -8.3699 H   0  0  0  0  0  0  0  0  0  0  0  0
   18.3249   45.0783   -7.4756 H   0  0  0  0  0  0  0  0  0  0  0  0
   18.6435   43.2799   -6.2361 H   0  0  0  0  0  0  0  0  0  0  0  0
   19.6188   42.8567   -7.5985 H   0  0  0  0  0  0  0  0  0  0  0  0
   22.2755   43.7942   -7.3011 H   0  0  0  0  0  0  0  0  0  0  0  0
   24.1351   43.3360   -5.7676 H   0  0  0  0  0  0  0  0  0  0  0  0
   23.6757   42.5281   -3.4695 H   0  0  0  0  0  0  0  0  0  0  0  0
   19.4491   42.8591   -4.1725 H   0  0  0  0  0  0  0  0  0  0  0  0
   22.2333   41.5225   -2.0398 H   0  0  0  0  0  0  0  0  0  0  0  0
   20.4246   40.1660   -3.0361 H   0  0  0  0  0  0  0  0  0  0  0  0
   19.2580   41.3572   -2.4634 H   0  0  0  0  0  0  0  0  0  0  0  0
   20.1746   40.4326   -1.3075 H   0  0  0  0  0  0  0  0  0  0  0  0
   21.8642   43.7732   -1.1413 H   0  0  0  0  0  0  0  0  0  0  0  0
   20.8537   42.6383   -0.2517 H   0  0  0  0  0  0  0  0  0  0  0  0
   20.1342   43.6772   -1.4780 H   0  0  0  0  0  0  0  0  0  0  0  0
   21.2981   45.4632  -10.6915 H   0  0  0  0  0  0  0  0  0  0  0  0
   12.6818   44.3918   -9.6013 H   0  0  0  0  0  0  0  0  0  0  0  0
   13.5086   45.3472  -10.8290 H   0  0  0  0  0  0  0  0  0  0  0  0
   11.2119   42.2596  -12.1481 H   0  0  0  0  0  0  0  0  0  0  0  0
   11.2727   42.5236  -10.4102 H   0  0  0  0  0  0  0  0  0  0  0  0
   12.6483   41.8016  -11.2624 H   0  0  0  0  0  0  0  0  0  0  0  0
  1  2  1  0  0  0  0
  1 42  1  0  0  0  0
  1 43  1  0  0  0  0
  1 44  1  0  0  0  0
  2 39  1  1  0  0  0
  2 21  1  0  0  0  0
  2  3  1  0  0  0  0
  3  4  1  0  0  0  0
  3 45  1  0  0  0  0
  3 46  1  0  0  0  0
  4  5  1  0  0  0  0
  4 47  1  0  0  0  0
  4 48  1  0  0  0  0
  5  6  1  0  0  0  0
  6  7  1  0  0  0  0
  6 49  1  0  0  0  0
  6 50  1  0  0  0  0
  7  8  1  0  0  0  0
  7 51  1  0  0  0  0
  7 52  1  0  0  0  0
  8  9  1  0  0  0  0
  8 53  1  0  0  0  0
  8 54  1  0  0  0  0
  9 10  1  0  0  0  0
  9 55  1  0  0  0  0
  9 56  1  0  0  0  0
 10 11  1  0  0  0  0
 10 57  1  0  0  0  0
 11 16  1  0  0  0  0
 11 12  2  0  0  0  0
 12 13  1  0  0  0  0
 12 58  1  0  0  0  0
 13 14  2  0  0  0  0
 13 36  1  0  0  0  0
 14 15  1  0  0  0  0
 14 59  1  0  0  0  0
 15 16  2  0  0  0  0
 15 17  1  0  0  0  0
 16 60  1  0  0  0  0
 17 18  2  0  0  0  0
 17 19  1  0  0  0  0
 19 20  1  0  0  0  0
 19 61  1  0  0  0  0
 20 40  1  1  0  0  0
 20 21  1  0  0  0  0
 20 22  1  0  0  0  0
 21 62  1  0  0  0  0
 21 63  1  0  0  0  0
 22 41  1  6  0  0  0
 22 23  1  0  0  0  0
 22 35  1  0  0  0  0
 23 24  1  0  0  0  0
 23 64  1  0  0  0  0
 23 65  1  0  0  0  0
 24 25  1  0  0  0  0
 24 66  1  0  0  0  0
 25 26  1  0  0  0  0
 25 67  1  0  0  0  0
 25 68  1  0  0  0  0
 26 31  1  0  0  0  0
 26 27  2  0  0  0  0
 27 28  1  0  0  0  0
 27 69  1  0  0  0  0
 28 29  2  0  0  0  0
 28 70  1  0  0  0  0
 29 30  1  0  0  0  0
 29 71  1  0  0  0  0
 30 31  2  0  0  0  0
 30 32  1  0  0  0  0
 31 72  1  0  0  0  0
 32 33  1  0  0  0  0
 32 34  1  0  0  0  0
 32 73  1  0  0  0  0
 33 74  1  0  0  0  0
 33 75  1  0  0  0  0
 33 76  1  0  0  0  0
 34 77  1  0  0  0  0
 34 78  1  0  0  0  0
 34 79  1  0  0  0  0
 35 80  1  0  0  0  0
 36 37  1  0  0  0  0
 36 81  1  0  0  0  0
 36 82  1  0  0  0  0
 37 38  1  0  0  0  0
 38 83  1  0  0  0  0
 38 84  1  0  0  0  0
 38 85  1  0  0  0  0
M  END
>  <s_m_source_file>
BACE_10.smi

>  <i_m_source_file_index>
1

>  <i_lp_mmshare_version>
42013

>  <i_f3d_flags>
0

>  <s_epik_input>
W05IXTFbQ0gyXVtDSDJdW0NIMl1bQ0gyXU9bQ0gyXVtDSDJdW0NAQEhdKFtDSDNdKVtDSDJdW0NASF0oW05IXUMoPU8pYyhbY0hdMilbY0hdYyhbY0hdYzEyKVtDSDJdT1tDSDNdKVtDQEhdKFtPSF0pW0NIMl1bTkhdW0NIMl1jM1tjSF1bY0hdW2NIXWMoW2NIXTMpW0NIXShbQ0gzXSlbQ0gzXQ==

>  <s_epik_cmdline>
J2VwaWtfcHl0aG9uJywgJy1waCcsICc3LjAnLCAnLXRuJywgJzgnLCAnLW1hJywgJzIwMCcsICctaW1hZScsICc8aW5maWxlLm1hZT4nLCAnLW9tYWUnLCAnPG91dGZpbGUubWFlPic=

>  <r_epik_Ionization_Penalty>
2.1223

>  <r_epik_Ionization_Penalty_Charging>
0

>  <r_epik_Ionization_Penalty_Neutral>
2.1223

>  <r_epik_State_Penalty>
2.2595

>  <r_epik_Charging_Adjusted_Penalty>
2.2595

>  <i_epik_Tot_Q>
0

>  <i_epik_Tot_abs_Q>
0

>  <s_lp_Force_Field>
OPLS_2005

>  <r_lp_Energy>
40.6464

>  <b_lp_Chiralities_Consistent>
1

>  <s_lp_Variant>
BACE_10.smi:1-2

>  <chiral flag>
1

>  <version>
0

>  <r_i_glide_lipo>
-0.931813

>  <r_i_glide_hbond>
-0.609587

>  <r_i_glide_metal>
-0

>  <r_i_glide_rewards>
0

>  <r_i_glide_erotb>
0.446868

>  <r_i_glide_esite>
-0.0218639

>  <s_i_glide_gridfile>
second_dock_grid_2

>  <i_i_glide_lignum>
21

>  <i_i_glide_rotatable_bonds>
9

>  <r_i_docking_score>
-2.65726

>  <r_i_glide_ligand_efficiency>
-0.0699278

>  <r_i_glide_ligand_efficiency_sa>
-0.235096

>  <r_i_glide_ligand_efficiency_ln>
-0.572983

>  <r_glide_XP_GScore>
-4.91676

>  <r_i_glide_gscore>
-4.91676

>  <r_i_glide_evdw>
-43.6577

>  <r_i_glide_ecoul>
-6.28796

>  <r_i_glide_energy>
-49.9457

>  <r_i_glide_einternal>
6.92502

>  <r_i_glide_emodel>
-66.394

>  <r_glide_XP_HBond>
-0.7

>  <i_i_glide_confnum>
1

>  <i_i_glide_posenum>
8

>  <r_i_glide_eff_state_penalty>
2.2595

>  <i_glide_XP_PoseRank>
3

>  <chiral flag>
1

$$$$
