BACE_18.smi:1
 OpenBabel10031817133D
Structure written by MMmdl.
 66 67  0  0  1  0  0  0  0  0999 V2000
   15.3201   39.3503   -6.8001 O   0  0  0  0  0  0  0  0  0  0  0  0
   14.9587   38.9093   -8.0870 C   0  0  0  0  0  0  0  0  0  0  0  0
   15.6358   39.8041   -9.1511 C   0  0  2  0  0  0  0  0  0  0  0  0
   14.8601   39.6855  -10.3337 O   0  0  0  0  0  0  0  0  0  0  0  0
   17.1171   39.4160   -9.4656 C   0  0  1  0  0  0  0  0  0  0  0  0
   17.6866   40.0508  -10.6673 N   0  0  0  0  0  0  0  0  0  0  0  0
   17.8609   41.3332  -11.0299 C   0  0  0  0  0  0  0  0  0  0  0  0
   18.4961   41.6286  -12.0398 O   0  0  0  0  0  0  0  0  0  0  0  0
   18.0851   39.5063   -8.2478 C   0  0  0  0  0  0  0  0  0  0  0  0
   19.5566   39.0461   -8.4665 C   0  0  2  0  0  0  0  0  0  0  0  0
   19.6458   37.7329   -9.2670 C   0  0  0  0  0  0  0  0  0  0  0  0
   20.3011   38.8386   -7.1205 C   0  0  0  0  0  0  0  0  0  0  0  0
   20.5711   40.1020   -6.2855 C   0  0  0  0  0  0  0  0  0  0  0  0
   21.7218   40.9712   -6.8170 C   0  0  0  0  0  0  0  0  0  0  0  0
   21.9711   42.2388   -5.9738 C   0  0  0  0  0  0  0  0  0  0  0  0
   21.4019   43.5298   -6.5845 C   0  0  0  0  0  0  0  0  0  0  0  0
   19.8663   43.6249   -6.5789 C   0  0  0  0  0  0  0  0  0  0  0  0
   19.3674   44.8264   -7.3999 C   0  0  0  0  0  0  0  0  0  0  0  0
   17.9474   44.8765   -7.4993 O   0  0  0  0  0  0  0  0  0  0  0  0
   17.3225   44.1555   -8.5013 C   0  0  0  0  0  0  0  0  0  0  0  0
   17.9354   43.1147   -9.2428 C   0  0  0  0  0  0  0  0  0  0  0  0
   17.2153   42.4219  -10.2344 C   0  0  0  0  0  0  0  0  0  0  0  0
   15.9809   44.4934   -8.7846 C   0  0  0  0  0  0  0  0  0  0  0  0
   15.2536   43.8121   -9.7835 C   0  0  0  0  0  0  0  0  0  0  0  0
   15.8895   42.7956  -10.5212 C   0  0  0  0  0  0  0  0  0  0  0  0
   13.8269   44.1483  -10.1047 C   0  0  0  0  0  0  0  0  0  0  0  0
   13.5425   44.4725  -11.2599 O   0  0  0  0  0  0  0  0  0  0  0  0
   12.8963   44.0211   -9.1266 N   0  0  0  0  0  0  0  0  0  0  0  0
   13.1967   43.7229   -7.7287 C   0  0  0  0  0  0  0  0  0  0  0  0
   11.4639   44.1016   -9.4168 C   0  0  0  0  0  0  0  0  0  0  0  0
   15.5663   40.8336   -8.8065 H   0  0  0  0  0  0  0  0  0  0  0  0
   17.0732   38.3626   -9.7391 H   0  0  0  0  0  0  0  0  0  0  0  0
   20.0809   39.8120   -9.0398 H   0  0  0  0  0  0  0  0  0  0  0  0
   15.0858   38.6908   -6.1486 H   0  0  0  0  0  0  0  0  0  0  0  0
   15.2329   37.8611   -8.2099 H   0  0  0  0  0  0  0  0  0  0  0  0
   13.8695   38.9679   -8.1516 H   0  0  0  0  0  0  0  0  0  0  0  0
   13.9432   39.7781  -10.0985 H   0  0  0  0  0  0  0  0  0  0  0  0
   18.0828   39.3922  -11.3205 H   0  0  0  0  0  0  0  0  0  0  0  0
   18.0733   40.5218   -7.8528 H   0  0  0  0  0  0  0  0  0  0  0  0
   17.6784   38.8819   -7.4516 H   0  0  0  0  0  0  0  0  0  0  0  0
   19.0178   36.9538   -8.8324 H   0  0  0  0  0  0  0  0  0  0  0  0
   20.6681   37.3557   -9.2825 H   0  0  0  0  0  0  0  0  0  0  0  0
   19.3431   37.8639  -10.3048 H   0  0  0  0  0  0  0  0  0  0  0  0
   19.7204   38.1437   -6.5115 H   0  0  0  0  0  0  0  0  0  0  0  0
   21.2561   38.3394   -7.2945 H   0  0  0  0  0  0  0  0  0  0  0  0
   19.6602   40.6842   -6.1848 H   0  0  0  0  0  0  0  0  0  0  0  0
   20.8219   39.7899   -5.2717 H   0  0  0  0  0  0  0  0  0  0  0  0
   22.6306   40.3684   -6.8131 H   0  0  0  0  0  0  0  0  0  0  0  0
   21.5536   41.2384   -7.8600 H   0  0  0  0  0  0  0  0  0  0  0  0
   21.6034   42.1059   -4.9560 H   0  0  0  0  0  0  0  0  0  0  0  0
   23.0487   42.3713   -5.8776 H   0  0  0  0  0  0  0  0  0  0  0  0
   21.8012   44.3841   -6.0386 H   0  0  0  0  0  0  0  0  0  0  0  0
   21.7740   43.6323   -7.6062 H   0  0  0  0  0  0  0  0  0  0  0  0
   19.4407   42.7071   -6.9777 H   0  0  0  0  0  0  0  0  0  0  0  0
   19.5032   43.6943   -5.5542 H   0  0  0  0  0  0  0  0  0  0  0  0
   19.6856   45.7446   -6.9077 H   0  0  0  0  0  0  0  0  0  0  0  0
   19.8223   44.8521   -8.3896 H   0  0  0  0  0  0  0  0  0  0  0  0
   18.9621   42.8271   -9.0729 H   0  0  0  0  0  0  0  0  0  0  0  0
   15.5186   45.2914   -8.2256 H   0  0  0  0  0  0  0  0  0  0  0  0
   15.3424   42.2667  -11.2870 H   0  0  0  0  0  0  0  0  0  0  0  0
   13.9654   42.9518   -7.6396 H   0  0  0  0  0  0  0  0  0  0  0  0
   12.3240   43.3506   -7.1863 H   0  0  0  0  0  0  0  0  0  0  0  0
   13.5392   44.6281   -7.2404 H   0  0  0  0  0  0  0  0  0  0  0  0
   11.2508   44.5484  -10.3868 H   0  0  0  0  0  0  0  0  0  0  0  0
   10.9386   44.6881   -8.6629 H   0  0  0  0  0  0  0  0  0  0  0  0
   11.0335   43.0989   -9.4134 H   0  0  0  0  0  0  0  0  0  0  0  0
  1  2  1  0  0  0  0
  1 34  1  0  0  0  0
  2  3  1  0  0  0  0
  2 35  1  0  0  0  0
  2 36  1  0  0  0  0
  3 31  1  1  0  0  0
  3  4  1  0  0  0  0
  3  5  1  0  0  0  0
  4 37  1  0  0  0  0
  5 32  1  6  0  0  0
  5  6  1  0  0  0  0
  5  9  1  0  0  0  0
  6  7  1  0  0  0  0
  6 38  1  0  0  0  0
  7 22  1  0  0  0  0
  7  8  2  0  0  0  0
  9 10  1  0  0  0  0
  9 39  1  0  0  0  0
  9 40  1  0  0  0  0
 10 33  1  6  0  0  0
 10 11  1  0  0  0  0
 10 12  1  0  0  0  0
 11 41  1  0  0  0  0
 11 42  1  0  0  0  0
 11 43  1  0  0  0  0
 12 13  1  0  0  0  0
 12 44  1  0  0  0  0
 12 45  1  0  0  0  0
 13 14  1  0  0  0  0
 13 46  1  0  0  0  0
 13 47  1  0  0  0  0
 14 15  1  0  0  0  0
 14 48  1  0  0  0  0
 14 49  1  0  0  0  0
 15 16  1  0  0  0  0
 15 50  1  0  0  0  0
 15 51  1  0  0  0  0
 16 17  1  0  0  0  0
 16 52  1  0  0  0  0
 16 53  1  0  0  0  0
 17 18  1  0  0  0  0
 17 54  1  0  0  0  0
 17 55  1  0  0  0  0
 18 19  1  0  0  0  0
 18 56  1  0  0  0  0
 18 57  1  0  0  0  0
 19 20  1  0  0  0  0
 20 21  1  0  0  0  0
 20 23  2  0  0  0  0
 21 22  2  0  0  0  0
 21 58  1  0  0  0  0
 22 25  1  0  0  0  0
 23 24  1  0  0  0  0
 23 59  1  0  0  0  0
 24 25  2  0  0  0  0
 24 26  1  0  0  0  0
 25 60  1  0  0  0  0
 26 27  2  0  0  0  0
 26 28  1  0  0  0  0
 28 29  1  0  0  0  0
 28 30  1  0  0  0  0
 29 61  1  0  0  0  0
 29 62  1  0  0  0  0
 29 63  1  0  0  0  0
 30 64  1  0  0  0  0
 30 65  1  0  0  0  0
 30 66  1  0  0  0  0
M  END
>  <s_m_source_file>
BACE_18.smi

>  <i_m_source_file_index>
1

>  <i_lp_mmshare_version>
42013

>  <i_f3d_flags>
0

>  <s_epik_input>
W0NIM11OKFtDSDNdKUMoPU8pYyhbY0hdMSlbY0hdYyhbY0hdYzEyKUMoPU8pW05IXVtDQEhdKFtDQEBIXShbT0hdKVtDSDJdW09IXSlbQ0gyXVtDQEhdKFtDSDNdKVtDSDJdW0NIMl1bQ0gyXVtDSDJdW0NIMl1bQ0gyXVtDSDJdTzI=

>  <s_epik_cmdline>
J2VwaWtfcHl0aG9uJywgJy1waCcsICc3LjAnLCAnLXRuJywgJzgnLCAnLW1hJywgJzIwMCcsICctaW1hZScsICc8aW5maWxlLm1hZT4nLCAnLW9tYWUnLCAnPG91dGZpbGUubWFlPic=

>  <r_lp_tautomer_probability>
1

>  <r_epik_Ionization_Penalty>
0

>  <r_epik_Ionization_Penalty_Charging>
0

>  <r_epik_Ionization_Penalty_Neutral>
0

>  <r_epik_State_Penalty>
-0

>  <r_epik_Charging_Adjusted_Penalty>
0

>  <i_epik_Tot_Q>
0

>  <i_epik_Tot_abs_Q>
0

>  <s_lp_Force_Field>
OPLS_2005

>  <r_lp_Energy>
54.3118

>  <b_lp_Chiralities_Consistent>
1

>  <s_lp_Variant>
BACE_18.smi:1-1

>  <chiral flag>
1

>  <version>
0

>  <r_i_glide_lipo>
-0.185503

>  <r_i_glide_hbond>
-0.470777

>  <r_i_glide_metal>
-0

>  <r_i_glide_rewards>
-0.541757

>  <r_i_glide_erotb>
0.335754

>  <r_i_glide_esite>
-0.0180469

>  <s_i_glide_gridfile>
second_dock_grid_2

>  <i_i_glide_lignum>
35

>  <i_i_glide_rotatable_bonds>
6

>  <r_i_docking_score>
-2.49381

>  <r_i_glide_ligand_efficiency>
-0.0831271

>  <r_i_glide_ligand_efficiency_sa>
-0.258295

>  <r_i_glide_ligand_efficiency_ln>
-0.566621

>  <r_glide_XP_GScore>
-2.49381

>  <r_i_glide_gscore>
-2.49381

>  <r_i_glide_evdw>
-36.4358

>  <r_i_glide_ecoul>
-7.41031

>  <r_i_glide_energy>
-43.8461

>  <r_i_glide_einternal>
2.53017

>  <r_i_glide_emodel>
-51.13

>  <r_glide_XP_HBond>
-0.70108

>  <i_i_glide_confnum>
1

>  <i_i_glide_posenum>
7

>  <r_i_glide_eff_state_penalty>
-0

>  <i_glide_XP_PoseRank>
7

>  <chiral flag>
1

$$$$
