BACE_5.smi:1
 OpenBabel10031817133D
Structure written by MMmdl.
 79 80  0  0  1  0  0  0  0  0999 V2000
   30.7850   42.9185  -10.1365 C   0  0  0  0  0  0  0  0  0  0  0  0
   30.8929   42.3182  -11.5471 C   0  0  0  0  0  0  0  0  0  0  0  0
   29.6976   41.4265  -11.9314 C   0  0  0  0  0  0  0  0  0  0  0  0
   28.3929   42.1786  -11.9145 C   0  0  0  0  0  0  0  0  0  0  0  0
   27.3036   42.0624  -11.0016 C   0  0  0  0  0  0  0  0  0  0  0  0
   26.4021   43.0009  -11.4247 C   0  0  0  0  0  0  0  0  0  0  0  0
   26.9629   43.5922  -12.5302 N   0  0  0  0  0  0  0  0  0  0  0  0
   28.1730   43.0985  -12.8403 N   0  0  0  0  0  0  0  0  0  0  0  0
   25.0729   43.4464  -10.9031 C   0  0  0  0  0  0  0  0  0  0  0  0
   24.0725   42.3849  -10.8400 N   0  0  0  0  0  0  0  0  0  0  0  0
   24.1242   41.5894   -9.6144 C   0  0  0  0  0  0  0  0  0  0  0  0
   22.9098   40.6491   -9.4660 C   0  0  2  0  0  0  0  0  0  0  0  0
   21.5912   41.3713   -9.0708 C   0  0  2  0  0  0  0  0  0  0  0  0
   20.4118   40.4255   -8.7087 C   0  0  0  0  0  0  0  0  0  0  0  0
   20.0152   39.3150   -9.7195 C   0  0  1  0  0  0  0  0  0  0  0  0
   18.8097   38.4770   -9.2127 C   0  0  0  0  0  0  0  0  0  0  0  0
   17.4717   39.2072   -8.9309 C   0  0  0  0  0  0  0  0  0  0  0  0
   16.6923   39.6373  -10.1855 C   0  0  0  0  0  0  0  0  0  0  0  0
   15.2755   40.1747   -9.9163 C   0  0  0  0  0  0  0  0  0  0  0  0
   15.2089   41.4850   -9.1089 C   0  0  0  0  0  0  0  0  0  0  0  0
   15.9913   42.6671   -9.7073 C   0  0  0  0  0  0  0  0  0  0  0  0
   15.5371   42.9710  -11.0288 O   0  0  0  0  0  0  0  0  0  0  0  0
   16.0968   44.1523  -11.6084 C   0  0  0  0  0  0  0  0  0  0  0  0
   17.5998   43.9611  -11.9081 C   0  0  0  0  0  0  0  0  0  0  0  0
   17.8927   43.2061  -12.8403 O   0  0  0  0  0  0  0  0  0  0  0  0
   18.5322   44.5740  -11.1304 N   0  0  0  0  0  0  0  0  0  0  0  0
   19.9578   44.1592  -11.1808 C   0  0  2  0  0  0  0  0  0  0  0  0
   20.3619   43.3698   -9.9204 C   0  0  0  0  0  0  0  0  0  0  0  0
   19.9417   43.6940   -8.8093 O   0  0  0  0  0  0  0  0  0  0  0  0
   21.1773   42.3211  -10.1056 N   0  0  0  0  0  0  0  0  0  0  0  0
   20.8892   45.3722  -11.3737 C   0  0  0  0  0  0  0  0  0  0  0  0
   18.1429   45.6007  -10.1483 C   0  0  0  0  0  0  0  0  0  0  0  0
   19.8498   39.7851  -11.1773 C   0  0  0  0  0  0  0  0  0  0  0  0
   23.2596   39.7496   -8.4398 O   0  0  0  0  0  0  0  0  0  0  0  0
   26.5418   44.3334  -13.0713 H   0  0  0  0  0  0  0  0  0  0  0  0
   22.7772   40.0707  -10.3817 H   0  0  0  0  0  0  0  0  0  0  0  0
   21.8108   41.9544   -8.1729 H   0  0  0  0  0  0  0  0  0  0  0  0
   20.8512   38.6149   -9.7458 H   0  0  0  0  0  0  0  0  0  0  0  0
   20.1313   43.5071  -12.0379 H   0  0  0  0  0  0  0  0  0  0  0  0
   31.6816   43.4829   -9.8823 H   0  0  0  0  0  0  0  0  0  0  0  0
   30.6490   42.1516   -9.3775 H   0  0  0  0  0  0  0  0  0  0  0  0
   29.9418   43.6058  -10.0636 H   0  0  0  0  0  0  0  0  0  0  0  0
   31.8140   41.7436  -11.6378 H   0  0  0  0  0  0  0  0  0  0  0  0
   30.9907   43.1285  -12.2705 H   0  0  0  0  0  0  0  0  0  0  0  0
   29.6588   40.5748  -11.2541 H   0  0  0  0  0  0  0  0  0  0  0  0
   29.8640   41.0077  -12.9250 H   0  0  0  0  0  0  0  0  0  0  0  0
   27.2130   41.3983  -10.1537 H   0  0  0  0  0  0  0  0  0  0  0  0
   24.6950   44.2343  -11.5558 H   0  0  0  0  0  0  0  0  0  0  0  0
   25.1959   43.9146   -9.9268 H   0  0  0  0  0  0  0  0  0  0  0  0
   24.1877   41.7647  -11.6449 H   0  0  0  0  0  0  0  0  0  0  0  0
   24.1773   42.2411   -8.7406 H   0  0  0  0  0  0  0  0  0  0  0  0
   25.0394   40.9967   -9.6136 H   0  0  0  0  0  0  0  0  0  0  0  0
   20.6439   39.9433   -7.7605 H   0  0  0  0  0  0  0  0  0  0  0  0
   19.5451   41.0447   -8.4915 H   0  0  0  0  0  0  0  0  0  0  0  0
   18.6255   37.6527   -9.9024 H   0  0  0  0  0  0  0  0  0  0  0  0
   19.1173   37.9958   -8.2810 H   0  0  0  0  0  0  0  0  0  0  0  0
   17.6220   40.0546   -8.2658 H   0  0  0  0  0  0  0  0  0  0  0  0
   16.8394   38.5223   -8.3645 H   0  0  0  0  0  0  0  0  0  0  0  0
   17.2386   40.3880  -10.7481 H   0  0  0  0  0  0  0  0  0  0  0  0
   16.6060   38.7741  -10.8401 H   0  0  0  0  0  0  0  0  0  0  0  0
   14.6898   39.4127   -9.3992 H   0  0  0  0  0  0  0  0  0  0  0  0
   14.7732   40.3320  -10.8722 H   0  0  0  0  0  0  0  0  0  0  0  0
   14.1622   41.7737   -8.9984 H   0  0  0  0  0  0  0  0  0  0  0  0
   15.5637   41.3030   -8.0924 H   0  0  0  0  0  0  0  0  0  0  0  0
   17.0582   42.4433   -9.6965 H   0  0  0  0  0  0  0  0  0  0  0  0
   15.8476   43.5352   -9.0639 H   0  0  0  0  0  0  0  0  0  0  0  0
   15.8625   45.0189  -10.9926 H   0  0  0  0  0  0  0  0  0  0  0  0
   15.5923   44.3302  -12.5578 H   0  0  0  0  0  0  0  0  0  0  0  0
   21.5520   42.1628  -11.0303 H   0  0  0  0  0  0  0  0  0  0  0  0
   21.8981   45.0439  -11.6257 H   0  0  0  0  0  0  0  0  0  0  0  0
   20.9754   45.9886  -10.4811 H   0  0  0  0  0  0  0  0  0  0  0  0
   20.5445   46.0130  -12.1840 H   0  0  0  0  0  0  0  0  0  0  0  0
   18.9873   46.0540   -9.6357 H   0  0  0  0  0  0  0  0  0  0  0  0
   17.5127   45.1726   -9.3685 H   0  0  0  0  0  0  0  0  0  0  0  0
   17.5986   46.4138  -10.6320 H   0  0  0  0  0  0  0  0  0  0  0  0
   19.4082   39.0046  -11.7943 H   0  0  0  0  0  0  0  0  0  0  0  0
   20.8133   40.0314  -11.6213 H   0  0  0  0  0  0  0  0  0  0  0  0
   19.2304   40.6756  -11.2624 H   0  0  0  0  0  0  0  0  0  0  0  0
   23.9032   39.1433   -8.7966 H   0  0  0  0  0  0  0  0  0  0  0  0
  1  2  1  0  0  0  0
  1 40  1  0  0  0  0
  1 41  1  0  0  0  0
  1 42  1  0  0  0  0
  2  3  1  0  0  0  0
  2 43  1  0  0  0  0
  2 44  1  0  0  0  0
  3 45  1  0  0  0  0
  3 46  1  0  0  0  0
  3  4  1  0  0  0  0
  4  8  2  0  0  0  0
  4  5  1  0  0  0  0
  5  6  2  0  0  0  0
  5 47  1  0  0  0  0
  6  7  1  0  0  0  0
  6  9  1  0  0  0  0
  7  8  1  0  0  0  0
  7 35  1  0  0  0  0
  9 10  1  0  0  0  0
  9 48  1  0  0  0  0
  9 49  1  0  0  0  0
 10 11  1  0  0  0  0
 10 50  1  0  0  0  0
 11 12  1  0  0  0  0
 11 51  1  0  0  0  0
 11 52  1  0  0  0  0
 12 36  1  6  0  0  0
 12 13  1  0  0  0  0
 12 34  1  0  0  0  0
 13 37  1  1  0  0  0
 13 30  1  0  0  0  0
 13 14  1  0  0  0  0
 14 15  1  0  0  0  0
 14 53  1  0  0  0  0
 14 54  1  0  0  0  0
 15 38  1  6  0  0  0
 15 16  1  0  0  0  0
 15 33  1  0  0  0  0
 16 17  1  0  0  0  0
 16 55  1  0  0  0  0
 16 56  1  0  0  0  0
 17 18  1  0  0  0  0
 17 57  1  0  0  0  0
 17 58  1  0  0  0  0
 18 19  1  0  0  0  0
 18 59  1  0  0  0  0
 18 60  1  0  0  0  0
 19 20  1  0  0  0  0
 19 61  1  0  0  0  0
 19 62  1  0  0  0  0
 20 21  1  0  0  0  0
 20 63  1  0  0  0  0
 20 64  1  0  0  0  0
 21 22  1  0  0  0  0
 21 65  1  0  0  0  0
 21 66  1  0  0  0  0
 22 23  1  0  0  0  0
 23 24  1  0  0  0  0
 23 67  1  0  0  0  0
 23 68  1  0  0  0  0
 24 25  2  0  0  0  0
 24 26  1  0  0  0  0
 26 27  1  0  0  0  0
 26 32  1  0  0  0  0
 27 39  1  6  0  0  0
 27 28  1  0  0  0  0
 27 31  1  0  0  0  0
 28 29  2  0  0  0  0
 28 30  1  0  0  0  0
 30 69  1  0  0  0  0
 31 70  1  0  0  0  0
 31 71  1  0  0  0  0
 31 72  1  0  0  0  0
 32 73  1  0  0  0  0
 32 74  1  0  0  0  0
 32 75  1  0  0  0  0
 33 76  1  0  0  0  0
 33 77  1  0  0  0  0
 33 78  1  0  0  0  0
 34 79  1  0  0  0  0
M  END
>  <s_m_source_file>
BACE_5.smi

>  <i_m_source_file_index>
1

>  <i_lp_mmshare_version>
42013

>  <i_f3d_flags>
0

>  <s_epik_input>
W0NIM11bQ0gyXVtDSDJdYzFbY0hdYyhuW25IXTEpW0NIMl1bTkhdW0NIMl1bQ0BASF0oW09IXSlbQ0BASF0yW0NIMl1bQ0BIXShbQ0gzXSlbQ0gyXVtDSDJdW0NIMl1bQ0gyXVtDSDJdW0NIMl1PW0NIMl1DKD1PKU4oW0NIM10pW0NAQEhdKFtDSDNdKUMoPU8pW05IXTI=

>  <s_epik_cmdline>
J2VwaWtfcHl0aG9uJywgJy1waCcsICc3LjAnLCAnLXRuJywgJzgnLCAnLW1hJywgJzIwMCcsICctaW1hZScsICc8aW5maWxlLm1hZT4nLCAnLW9tYWUnLCAnPG91dGZpbGUubWFlPic=

>  <r_lp_tautomer_probability>
0.5

>  <r_epik_Ionization_Penalty>
0.9876

>  <r_epik_Ionization_Penalty_Charging>
0

>  <r_epik_Ionization_Penalty_Neutral>
0.9876

>  <r_epik_State_Penalty>
1.6104

>  <r_epik_Charging_Adjusted_Penalty>
1.61044

>  <i_epik_Tot_Q>
0

>  <i_epik_Tot_abs_Q>
0

>  <s_lp_Force_Field>
OPLS_2005

>  <r_lp_Energy>
32.3926

>  <b_lp_Chiralities_Consistent>
1

>  <s_lp_Variant>
BACE_5.smi:1-3

>  <chiral flag>
1

>  <version>
0

>  <r_i_glide_lipo>
-0.879821

>  <r_i_glide_hbond>
-0.816235

>  <r_i_glide_metal>
-0

>  <r_i_glide_rewards>
-0.14092

>  <r_i_glide_erotb>
0.52871

>  <r_i_glide_esite>
-0.0560036

>  <s_i_glide_gridfile>
second_dock_grid_2

>  <i_i_glide_lignum>
10

>  <i_i_glide_rotatable_bonds>
8

>  <r_i_docking_score>
-1.5958

>  <r_i_glide_ligand_efficiency>
-0.0469354

>  <r_i_glide_ligand_efficiency_sa>
-0.152052

>  <r_i_glide_ligand_efficiency_ln>
-0.352558

>  <r_glide_XP_GScore>
-3.2062

>  <r_i_glide_gscore>
-3.2062

>  <r_i_glide_evdw>
-34.4716

>  <r_i_glide_ecoul>
-10.8473

>  <r_i_glide_energy>
-45.3189

>  <r_i_glide_einternal>
4.04448

>  <r_i_glide_emodel>
-60.1574

>  <r_glide_XP_HBond>
-0.9975

>  <i_i_glide_confnum>
1

>  <i_i_glide_posenum>
2

>  <r_i_glide_eff_state_penalty>
1.6104

>  <i_glide_XP_PoseRank>
5

>  <chiral flag>
1

$$$$
