BACE_5.smi:1
 OpenBabel10031817133D
Structure written by MMmdl.
 79 80  0  0  1  0  0  0  0  0999 V2000
   29.9620   42.7722  -14.8060 C   0  0  0  0  0  0  0  0  0  0  0  0
   29.5673   44.0915  -14.1232 C   0  0  0  0  0  0  0  0  0  0  0  0
   29.5900   44.0380  -12.5856 C   0  0  0  0  0  0  0  0  0  0  0  0
   28.5361   43.1371  -12.0020 C   0  0  0  0  0  0  0  0  0  0  0  0
   27.2320   43.4857  -11.5438 C   0  0  0  0  0  0  0  0  0  0  0  0
   26.7015   42.3106  -11.0899 C   0  0  0  0  0  0  0  0  0  0  0  0
   27.6640   41.3501  -11.3102 N   0  0  0  0  0  0  0  0  0  0  0  0
   28.7894   41.8471  -11.8546 N   0  0  0  0  0  0  0  0  0  0  0  0
   25.3809   42.0200  -10.4524 C   0  0  0  0  0  0  0  0  0  0  0  0
   24.2676   42.5509  -11.2400 N   0  0  0  0  0  0  0  0  0  0  0  0
   23.0157   42.7854  -10.5159 C   0  0  0  0  0  0  0  0  0  0  0  0
   22.3807   41.4847   -9.9589 C   0  0  2  0  0  0  0  0  0  0  0  0
   20.8209   41.4388   -9.8157 C   0  0  2  0  0  0  0  0  0  0  0  0
   20.1789   40.1402  -10.3680 C   0  0  0  0  0  0  0  0  0  0  0  0
   20.2333   38.8950   -9.4522 C   0  0  1  0  0  0  0  0  0  0  0  0
   19.2628   37.7846   -9.9202 C   0  0  0  0  0  0  0  0  0  0  0  0
   17.7666   38.1419  -10.0229 C   0  0  0  0  0  0  0  0  0  0  0  0
   17.1418   38.6978   -8.7315 C   0  0  0  0  0  0  0  0  0  0  0  0
   15.6050   38.8100   -8.7926 C   0  0  0  0  0  0  0  0  0  0  0  0
   15.0480   39.6851   -9.9333 C   0  0  0  0  0  0  0  0  0  0  0  0
   15.4562   41.1605   -9.8438 C   0  0  0  0  0  0  0  0  0  0  0  0
   14.8681   41.8681  -10.9330 O   0  0  0  0  0  0  0  0  0  0  0  0
   15.0660   43.2788  -10.8946 C   0  0  0  0  0  0  0  0  0  0  0  0
   16.5145   43.6366  -11.2903 C   0  0  0  0  0  0  0  0  0  0  0  0
   16.8605   43.3500  -12.4401 O   0  0  0  0  0  0  0  0  0  0  0  0
   17.3517   44.2259  -10.3951 N   0  0  0  0  0  0  0  0  0  0  0  0
   18.7594   44.5338  -10.7513 C   0  0  2  0  0  0  0  0  0  0  0  0
   19.7339   43.6857   -9.9167 C   0  0  0  0  0  0  0  0  0  0  0  0
   20.0822   44.0406   -8.7874 O   0  0  0  0  0  0  0  0  0  0  0  0
   20.1343   42.5406  -10.4898 N   0  0  0  0  0  0  0  0  0  0  0  0
   19.0337   46.0477  -10.6369 C   0  0  0  0  0  0  0  0  0  0  0  0
   16.9218   44.5030   -9.0133 C   0  0  0  0  0  0  0  0  0  0  0  0
   21.6515   38.3054   -9.3572 C   0  0  0  0  0  0  0  0  0  0  0  0
   22.9261   41.3171   -8.6643 O   0  0  0  0  0  0  0  0  0  0  0  0
   27.6047   40.3635  -11.0636 H   0  0  0  0  0  0  0  0  0  0  0  0
   22.6970   40.6470  -10.5825 H   0  0  0  0  0  0  0  0  0  0  0  0
   20.5515   41.5032   -8.7588 H   0  0  0  0  0  0  0  0  0  0  0  0
   19.9310   39.1915   -8.4474 H   0  0  0  0  0  0  0  0  0  0  0  0
   18.9631   44.2915  -11.7953 H   0  0  0  0  0  0  0  0  0  0  0  0
   29.9811   42.8806  -15.8904 H   0  0  0  0  0  0  0  0  0  0  0  0
   29.2604   41.9697  -14.5746 H   0  0  0  0  0  0  0  0  0  0  0  0
   30.9520   42.4437  -14.4878 H   0  0  0  0  0  0  0  0  0  0  0  0
   28.5775   44.4071  -14.4553 H   0  0  0  0  0  0  0  0  0  0  0  0
   30.2585   44.8675  -14.4548 H   0  0  0  0  0  0  0  0  0  0  0  0
   29.4520   45.0472  -12.1960 H   0  0  0  0  0  0  0  0  0  0  0  0
   30.5782   43.7272  -12.2434 H   0  0  0  0  0  0  0  0  0  0  0  0
   26.7586   44.4560  -11.5373 H   0  0  0  0  0  0  0  0  0  0  0  0
   25.3817   42.4716   -9.4607 H   0  0  0  0  0  0  0  0  0  0  0  0
   25.2605   40.9467  -10.3043 H   0  0  0  0  0  0  0  0  0  0  0  0
   24.0671   41.8800  -11.9855 H   0  0  0  0  0  0  0  0  0  0  0  0
   22.3417   43.2479  -11.2335 H   0  0  0  0  0  0  0  0  0  0  0  0
   23.1516   43.5261   -9.7261 H   0  0  0  0  0  0  0  0  0  0  0  0
   19.1257   40.3626  -10.5394 H   0  0  0  0  0  0  0  0  0  0  0  0
   20.5837   39.9008  -11.3532 H   0  0  0  0  0  0  0  0  0  0  0  0
   19.5913   37.4060  -10.8874 H   0  0  0  0  0  0  0  0  0  0  0  0
   19.3482   36.9468   -9.2303 H   0  0  0  0  0  0  0  0  0  0  0  0
   17.2277   37.2342  -10.2946 H   0  0  0  0  0  0  0  0  0  0  0  0
   17.6066   38.8316  -10.8506 H   0  0  0  0  0  0  0  0  0  0  0  0
   17.4023   38.0412   -7.8998 H   0  0  0  0  0  0  0  0  0  0  0  0
   17.5755   39.6689   -8.4923 H   0  0  0  0  0  0  0  0  0  0  0  0
   15.2410   39.1908   -7.8365 H   0  0  0  0  0  0  0  0  0  0  0  0
   15.1863   37.8068   -8.8853 H   0  0  0  0  0  0  0  0  0  0  0  0
   15.3427   39.2823  -10.9009 H   0  0  0  0  0  0  0  0  0  0  0  0
   13.9596   39.6234   -9.9104 H   0  0  0  0  0  0  0  0  0  0  0  0
   16.5428   41.2482   -9.8746 H   0  0  0  0  0  0  0  0  0  0  0  0
   15.1154   41.5778   -8.8945 H   0  0  0  0  0  0  0  0  0  0  0  0
   14.7320   43.6814   -9.9398 H   0  0  0  0  0  0  0  0  0  0  0  0
   14.4088   43.7234  -11.6429 H   0  0  0  0  0  0  0  0  0  0  0  0
   19.8164   42.3564  -11.4305 H   0  0  0  0  0  0  0  0  0  0  0  0
   20.0439   46.2882  -10.9729 H   0  0  0  0  0  0  0  0  0  0  0  0
   18.9395   46.4198   -9.6166 H   0  0  0  0  0  0  0  0  0  0  0  0
   18.3403   46.6148  -11.2592 H   0  0  0  0  0  0  0  0  0  0  0  0
   17.7034   44.9542   -8.4032 H   0  0  0  0  0  0  0  0  0  0  0  0
   16.6233   43.5857   -8.5028 H   0  0  0  0  0  0  0  0  0  0  0  0
   16.0826   45.2019   -8.9993 H   0  0  0  0  0  0  0  0  0  0  0  0
   21.6499   37.3503   -8.8402 H   0  0  0  0  0  0  0  0  0  0  0  0
   22.3261   38.9370   -8.7882 H   0  0  0  0  0  0  0  0  0  0  0  0
   22.0833   38.1503  -10.3457 H   0  0  0  0  0  0  0  0  0  0  0  0
   23.8255   41.0492   -8.7498 H   0  0  0  0  0  0  0  0  0  0  0  0
  1  2  1  0  0  0  0
  1 40  1  0  0  0  0
  1 41  1  0  0  0  0
  1 42  1  0  0  0  0
  2  3  1  0  0  0  0
  2 43  1  0  0  0  0
  2 44  1  0  0  0  0
  3 45  1  0  0  0  0
  3 46  1  0  0  0  0
  3  4  1  0  0  0  0
  4  8  2  0  0  0  0
  4  5  1  0  0  0  0
  5  6  2  0  0  0  0
  5 47  1  0  0  0  0
  6  7  1  0  0  0  0
  6  9  1  0  0  0  0
  7  8  1  0  0  0  0
  7 35  1  0  0  0  0
  9 10  1  0  0  0  0
  9 48  1  0  0  0  0
  9 49  1  0  0  0  0
 10 11  1  0  0  0  0
 10 50  1  0  0  0  0
 11 12  1  0  0  0  0
 11 51  1  0  0  0  0
 11 52  1  0  0  0  0
 12 36  1  6  0  0  0
 12 13  1  0  0  0  0
 12 34  1  0  0  0  0
 13 37  1  1  0  0  0
 13 30  1  0  0  0  0
 13 14  1  0  0  0  0
 14 15  1  0  0  0  0
 14 53  1  0  0  0  0
 14 54  1  0  0  0  0
 15 38  1  1  0  0  0
 15 16  1  0  0  0  0
 15 33  1  0  0  0  0
 16 17  1  0  0  0  0
 16 55  1  0  0  0  0
 16 56  1  0  0  0  0
 17 18  1  0  0  0  0
 17 57  1  0  0  0  0
 17 58  1  0  0  0  0
 18 19  1  0  0  0  0
 18 59  1  0  0  0  0
 18 60  1  0  0  0  0
 19 20  1  0  0  0  0
 19 61  1  0  0  0  0
 19 62  1  0  0  0  0
 20 21  1  0  0  0  0
 20 63  1  0  0  0  0
 20 64  1  0  0  0  0
 21 22  1  0  0  0  0
 21 65  1  0  0  0  0
 21 66  1  0  0  0  0
 22 23  1  0  0  0  0
 23 24  1  0  0  0  0
 23 67  1  0  0  0  0
 23 68  1  0  0  0  0
 24 25  2  0  0  0  0
 24 26  1  0  0  0  0
 26 27  1  0  0  0  0
 26 32  1  0  0  0  0
 27 39  1  6  0  0  0
 27 28  1  0  0  0  0
 27 31  1  0  0  0  0
 28 29  2  0  0  0  0
 28 30  1  0  0  0  0
 30 69  1  0  0  0  0
 31 70  1  0  0  0  0
 31 71  1  0  0  0  0
 31 72  1  0  0  0  0
 32 73  1  0  0  0  0
 32 74  1  0  0  0  0
 32 75  1  0  0  0  0
 33 76  1  0  0  0  0
 33 77  1  0  0  0  0
 33 78  1  0  0  0  0
 34 79  1  0  0  0  0
M  END
>  <s_m_source_file>
BACE_5.smi

>  <i_m_source_file_index>
1

>  <i_lp_mmshare_version>
42013

>  <i_f3d_flags>
0

>  <s_epik_input>
W0NIM11bQ0gyXVtDSDJdYzFbY0hdYyhuW25IXTEpW0NIMl1bTkhdW0NIMl1bQ0BASF0oW09IXSlbQ0BASF0yW0NIMl1bQ0BIXShbQ0gzXSlbQ0gyXVtDSDJdW0NIMl1bQ0gyXVtDSDJdW0NIMl1PW0NIMl1DKD1PKU4oW0NIM10pW0NAQEhdKFtDSDNdKUMoPU8pW05IXTI=

>  <s_epik_cmdline>
J2VwaWtfcHl0aG9uJywgJy1waCcsICc3LjAnLCAnLXRuJywgJzgnLCAnLW1hJywgJzIwMCcsICctaW1hZScsICc8aW5maWxlLm1hZT4nLCAnLW9tYWUnLCAnPG91dGZpbGUubWFlPic=

>  <r_lp_tautomer_probability>
0.5

>  <r_epik_Ionization_Penalty>
0.9876

>  <r_epik_Ionization_Penalty_Charging>
0

>  <r_epik_Ionization_Penalty_Neutral>
0.9876

>  <r_epik_State_Penalty>
1.6104

>  <r_epik_Charging_Adjusted_Penalty>
1.61044

>  <i_epik_Tot_Q>
0

>  <i_epik_Tot_abs_Q>
0

>  <s_lp_Force_Field>
OPLS_2005

>  <r_lp_Energy>
32.3926

>  <b_lp_Chiralities_Consistent>
1

>  <s_lp_Variant>
BACE_5.smi:1-3

>  <chiral flag>
1

>  <version>
0

>  <r_i_glide_lipo>
-0.879821

>  <r_i_glide_hbond>
-0.816235

>  <r_i_glide_metal>
-0

>  <r_i_glide_rewards>
-0.14092

>  <r_i_glide_erotb>
0.52871

>  <r_i_glide_esite>
-0.0560036

>  <s_i_glide_gridfile>
second_dock_grid_2

>  <i_i_glide_lignum>
10

>  <i_i_glide_rotatable_bonds>
8

>  <r_i_docking_score>
-4.35349

>  <r_i_glide_ligand_efficiency>
-0.128044

>  <r_i_glide_ligand_efficiency_sa>
-0.414812

>  <r_i_glide_ligand_efficiency_ln>
-0.961808

>  <r_glide_XP_GScore>
-5.96389

>  <r_i_glide_gscore>
-5.96389

>  <r_i_glide_evdw>
-31.439

>  <r_i_glide_ecoul>
-15.0811

>  <r_i_glide_energy>
-46.5202

>  <r_i_glide_einternal>
7.55016

>  <r_i_glide_emodel>
-59.6089

>  <r_glide_XP_HBond>
-0.9975

>  <i_i_glide_confnum>
1

>  <i_i_glide_posenum>
10

>  <r_i_glide_eff_state_penalty>
1.6104

>  <i_glide_XP_PoseRank>
1

>  <chiral flag>
1

$$$$
