BACE_13.smi:1
 OpenBabel10031817133D
Structure written by MMmdl.
 76 79  0  0  1  0  0  0  0  0999 V2000
   20.0731   49.6243   -6.9811 C   0  0  0  0  0  0  0  0  0  0  0  0
   20.9062   49.4382   -8.1147 O   0  0  0  0  0  0  0  0  0  0  0  0
   21.8780   48.4128   -7.9655 C   0  0  0  0  0  0  0  0  0  0  0  0
   21.2824   47.0168   -7.8827 C   0  0  0  0  0  0  0  0  0  0  0  0
   20.9675   46.3035   -9.0576 C   0  0  0  0  0  0  0  0  0  0  0  0
   20.4277   45.0000   -8.9849 C   0  0  0  0  0  0  0  0  0  0  0  0
   20.1827   44.4266   -7.7146 C   0  0  0  0  0  0  0  0  0  0  0  0
   20.4993   45.1340   -6.5280 C   0  0  0  0  0  0  0  0  0  0  0  0
   21.0526   46.4246   -6.6250 C   0  0  0  0  0  0  0  0  0  0  0  0
   20.2877   44.6219   -5.2405 N   0  0  0  0  0  0  0  0  0  0  0  0
   20.0601   43.2031   -5.0261 C   0  0  0  0  0  0  0  0  0  0  0  0
   21.3223   42.3622   -5.2515 C   0  0  0  0  0  0  0  0  0  0  0  0
   21.0618   40.8662   -5.0247 C   0  0  0  0  0  0  0  0  0  0  0  0
   22.2469   39.9933   -5.4667 C   0  0  0  0  0  0  0  0  0  0  0  0
   22.5226   40.1538   -6.8569 O   0  0  0  0  0  0  0  0  0  0  0  0
   21.5949   39.7220   -7.7787 C   0  0  0  0  0  0  0  0  0  0  0  0
   20.6498   38.6940   -7.5309 C   0  0  0  0  0  0  0  0  0  0  0  0
   19.7425   38.3079   -8.5343 C   0  0  0  0  0  0  0  0  0  0  0  0
   19.7554   38.9444   -9.7873 C   0  0  0  0  0  0  0  0  0  0  0  0
   20.6575   39.9997  -10.0308 C   0  0  0  0  0  0  0  0  0  0  0  0
   21.5951   40.3542   -9.0385 C   0  0  0  0  0  0  0  0  0  0  0  0
   20.6337   40.7261  -11.3665 C   0  0  0  0  0  0  0  0  0  0  0  0
   19.8744   42.0821  -11.4099 C   0  0  2  0  0  0  0  0  0  0  0  0
   20.1883   42.9392  -10.2556 N   0  0  0  0  0  0  0  0  0  0  0  0
   20.0564   44.2789  -10.2531 C   0  0  0  0  0  0  0  0  0  0  0  0
   19.6820   44.9066  -11.2439 O   0  0  0  0  0  0  0  0  0  0  0  0
   18.3351   41.9610  -11.6873 C   0  0  1  0  0  0  0  0  0  0  0  0
   17.3800   42.1062  -10.4651 C   0  0  1  0  0  0  0  0  0  0  0  0
   15.8855   42.1341  -10.8607 C   0  0  0  0  0  0  0  0  0  0  0  0
   15.0501   42.2196   -9.7052 O   0  0  0  0  0  0  0  0  0  0  0  0
   15.2312   41.1508   -8.7676 C   0  0  2  0  0  0  0  0  0  0  0  0
   16.7161   41.0875   -8.3554 C   0  0  0  0  0  0  0  0  0  0  0  0
   17.5818   41.0046   -9.5300 N   0  0  0  0  0  0  0  0  0  0  0  0
   14.6451   39.8166   -9.3023 C   0  0  0  0  0  0  0  0  0  0  0  0
   14.9113   38.6760   -8.4964 O   0  0  0  0  0  0  0  0  0  0  0  0
   14.4636   38.7627   -7.1485 C   0  0  0  0  0  0  0  0  0  0  0  0
   18.0112   42.9501  -12.6568 O   0  0  0  0  0  0  0  0  0  0  0  0
   20.3130   42.5507  -12.2865 H   0  0  0  0  0  0  0  0  0  0  0  0
   18.1345   41.0050  -12.1716 H   0  0  0  0  0  0  0  0  0  0  0  0
   17.5858   43.0476   -9.9591 H   0  0  0  0  0  0  0  0  0  0  0  0
   14.6638   41.4317   -7.8802 H   0  0  0  0  0  0  0  0  0  0  0  0
   19.4244   50.4838   -7.1469 H   0  0  0  0  0  0  0  0  0  0  0  0
   20.6628   49.8203   -6.0840 H   0  0  0  0  0  0  0  0  0  0  0  0
   19.4368   48.7591   -6.8004 H   0  0  0  0  0  0  0  0  0  0  0  0
   22.5043   48.6085   -7.0952 H   0  0  0  0  0  0  0  0  0  0  0  0
   22.5467   48.4539   -8.8279 H   0  0  0  0  0  0  0  0  0  0  0  0
   21.1385   46.7654  -10.0199 H   0  0  0  0  0  0  0  0  0  0  0  0
   19.7446   43.4411   -7.6603 H   0  0  0  0  0  0  0  0  0  0  0  0
   21.2973   46.9755   -5.7295 H   0  0  0  0  0  0  0  0  0  0  0  0
   20.6861   45.1200   -4.4556 H   0  0  0  0  0  0  0  0  0  0  0  0
   19.2614   42.8683   -5.6793 H   0  0  0  0  0  0  0  0  0  0  0  0
   19.6996   43.0638   -4.0045 H   0  0  0  0  0  0  0  0  0  0  0  0
   22.1200   42.7000   -4.5905 H   0  0  0  0  0  0  0  0  0  0  0  0
   21.6803   42.5131   -6.2691 H   0  0  0  0  0  0  0  0  0  0  0  0
   20.1587   40.5635   -5.5545 H   0  0  0  0  0  0  0  0  0  0  0  0
   20.8516   40.6913   -3.9677 H   0  0  0  0  0  0  0  0  0  0  0  0
   22.0881   38.9507   -5.2068 H   0  0  0  0  0  0  0  0  0  0  0  0
   23.1366   40.2918   -4.9143 H   0  0  0  0  0  0  0  0  0  0  0  0
   20.6108   38.1792   -6.5842 H   0  0  0  0  0  0  0  0  0  0  0  0
   19.0240   37.5264   -8.3388 H   0  0  0  0  0  0  0  0  0  0  0  0
   19.0440   38.6484  -10.5447 H   0  0  0  0  0  0  0  0  0  0  0  0
   22.3121   41.1399   -9.2317 H   0  0  0  0  0  0  0  0  0  0  0  0
   20.2552   40.0554  -12.1391 H   0  0  0  0  0  0  0  0  0  0  0  0
   21.6757   40.9013  -11.6410 H   0  0  0  0  0  0  0  0  0  0  0  0
   20.5362   42.4869   -9.4226 H   0  0  0  0  0  0  0  0  0  0  0  0
   15.6318   41.2703  -11.4741 H   0  0  0  0  0  0  0  0  0  0  0  0
   15.6749   43.0096  -11.4747 H   0  0  0  0  0  0  0  0  0  0  0  0
   16.8933   40.2401   -7.6933 H   0  0  0  0  0  0  0  0  0  0  0  0
   16.9682   41.9773   -7.7751 H   0  0  0  0  0  0  0  0  0  0  0  0
   18.5517   40.9482   -9.2400 H   0  0  0  0  0  0  0  0  0  0  0  0
   13.5705   39.9042   -9.4497 H   0  0  0  0  0  0  0  0  0  0  0  0
   15.0662   39.5712  -10.2714 H   0  0  0  0  0  0  0  0  0  0  0  0
   14.0949   37.7894   -6.8303 H   0  0  0  0  0  0  0  0  0  0  0  0
   13.6479   39.4691   -7.0059 H   0  0  0  0  0  0  0  0  0  0  0  0
   15.2886   39.0557   -6.4895 H   0  0  0  0  0  0  0  0  0  0  0  0
   18.2874   43.7906  -12.3047 H   0  0  0  0  0  0  0  0  0  0  0  0
  1  2  1  0  0  0  0
  1 42  1  0  0  0  0
  1 43  1  0  0  0  0
  1 44  1  0  0  0  0
  2  3  1  0  0  0  0
  3  4  1  0  0  0  0
  3 45  1  0  0  0  0
  3 46  1  0  0  0  0
  4  9  1  0  0  0  0
  4  5  2  0  0  0  0
  5  6  1  0  0  0  0
  5 47  1  0  0  0  0
  6 25  1  0  0  0  0
  6  7  2  0  0  0  0
  7  8  1  0  0  0  0
  7 48  1  0  0  0  0
  8  9  2  0  0  0  0
  8 10  1  0  0  0  0
  9 49  1  0  0  0  0
 10 11  1  0  0  0  0
 10 50  1  0  0  0  0
 11 12  1  0  0  0  0
 11 51  1  0  0  0  0
 11 52  1  0  0  0  0
 12 13  1  0  0  0  0
 12 53  1  0  0  0  0
 12 54  1  0  0  0  0
 13 14  1  0  0  0  0
 13 55  1  0  0  0  0
 13 56  1  0  0  0  0
 14 15  1  0  0  0  0
 14 57  1  0  0  0  0
 14 58  1  0  0  0  0
 15 16  1  0  0  0  0
 16 21  1  0  0  0  0
 16 17  2  0  0  0  0
 17 18  1  0  0  0  0
 17 59  1  0  0  0  0
 18 19  2  0  0  0  0
 18 60  1  0  0  0  0
 19 20  1  0  0  0  0
 19 61  1  0  0  0  0
 20 21  2  0  0  0  0
 20 22  1  0  0  0  0
 21 62  1  0  0  0  0
 22 23  1  0  0  0  0
 22 63  1  0  0  0  0
 22 64  1  0  0  0  0
 23 38  1  6  0  0  0
 23 24  1  0  0  0  0
 23 27  1  0  0  0  0
 24 25  1  0  0  0  0
 24 65  1  0  0  0  0
 25 26  2  0  0  0  0
 27 39  1  6  0  0  0
 27 28  1  0  0  0  0
 27 37  1  0  0  0  0
 28 40  1  1  0  0  0
 28 33  1  0  0  0  0
 28 29  1  0  0  0  0
 29 30  1  0  0  0  0
 29 66  1  0  0  0  0
 29 67  1  0  0  0  0
 30 31  1  0  0  0  0
 31 41  1  1  0  0  0
 31 32  1  0  0  0  0
 31 34  1  0  0  0  0
 32 33  1  0  0  0  0
 32 68  1  0  0  0  0
 32 69  1  0  0  0  0
 33 70  1  0  0  0  0
 34 35  1  0  0  0  0
 34 71  1  0  0  0  0
 34 72  1  0  0  0  0
 35 36  1  0  0  0  0
 36 73  1  0  0  0  0
 36 74  1  0  0  0  0
 36 75  1  0  0  0  0
 37 76  1  0  0  0  0
M  END
>  <s_m_source_file>
BACE_13.smi

>  <i_m_source_file_index>
1

>  <i_lp_mmshare_version>
42013

>  <i_f3d_flags>
0

>  <s_epik_input>
W0NIM11PW0NIMl1jKFtjSF1jMTIpW2NIXWMoW2NIXTEpW05IXVtDSDJdW0NIMl1bQ0gyXVtDSDJdT2MzW2NIXVtjSF1bY0hdYyhbY0hdMylbQ0gyXVtDQEhdKFtOSF1DMj1PKVtDQEhdKFtPSF0pW0NASF00W0NIMl1PW0NASF0oW0NIMl1bTkhdNClbQ0gyXU9bQ0gzXQ==

>  <s_epik_cmdline>
J2VwaWtfcHl0aG9uJywgJy1waCcsICc3LjAnLCAnLXRuJywgJzgnLCAnLW1hJywgJzIwMCcsICctaW1hZScsICc8aW5maWxlLm1hZT4nLCAnLW9tYWUnLCAnPG91dGZpbGUubWFlPic=

>  <r_lp_tautomer_probability>
1

>  <r_epik_Ionization_Penalty>
1.0247

>  <r_epik_Ionization_Penalty_Charging>
0

>  <r_epik_Ionization_Penalty_Neutral>
1.0247

>  <r_epik_State_Penalty>
1.0749

>  <r_epik_Charging_Adjusted_Penalty>
1.07494

>  <i_epik_Tot_Q>
0

>  <i_epik_Tot_abs_Q>
0

>  <s_lp_Force_Field>
OPLS_2005

>  <r_lp_Energy>
44.7965

>  <b_lp_Chiralities_Consistent>
1

>  <s_lp_Variant>
BACE_13.smi:1-2

>  <chiral flag>
1

>  <version>
0

>  <r_i_glide_lipo>
-0.805819

>  <r_i_glide_hbond>
-0.734486

>  <r_i_glide_metal>
-0

>  <r_i_glide_rewards>
0

>  <r_i_glide_erotb>
0.310939

>  <r_i_glide_esite>
-0.00333392

>  <s_i_glide_gridfile>
second_dock_grid_2

>  <i_i_glide_lignum>
27

>  <i_i_glide_rotatable_bonds>
7

>  <r_i_docking_score>
-2.85955

>  <r_i_glide_ligand_efficiency>
-0.0772851

>  <r_i_glide_ligand_efficiency_sa>
-0.257531

>  <r_i_glide_ligand_efficiency_ln>
-0.620169

>  <r_glide_XP_GScore>
-3.93445

>  <r_i_glide_gscore>
-3.93445

>  <r_i_glide_evdw>
-37.1988

>  <r_i_glide_ecoul>
-7.44324

>  <r_i_glide_energy>
-44.642

>  <r_i_glide_einternal>
1.85249

>  <r_i_glide_emodel>
-59.7374

>  <r_glide_XP_HBond>
-1.52948

>  <i_i_glide_confnum>
1

>  <i_i_glide_posenum>
26

>  <r_i_glide_eff_state_penalty>
1.0749

>  <i_glide_XP_PoseRank>
4

>  <chiral flag>
1

$$$$
