BACE_17.smi:1
 OpenBabel10031817133D
Structure written by MMmdl.
 62 64  0  0  1  0  0  0  0  0999 V2000
   17.6697   48.2394   -6.6092 C   0  0  0  0  0  0  0  0  0  0  0  0
   18.4609   47.0344   -6.8686 N   0  0  0  0  0  0  0  0  0  0  0  0
   17.6922   45.9096   -7.4118 C   0  0  0  0  0  0  0  0  0  0  0  0
   19.7715   46.9717   -6.5260 C   0  0  0  0  0  0  0  0  0  0  0  0
   20.3448   47.8774   -5.9195 O   0  0  0  0  0  0  0  0  0  0  0  0
   20.5469   45.7334   -6.8800 C   0  0  0  0  0  0  0  0  0  0  0  0
   21.2282   45.0259   -5.8652 C   0  0  0  0  0  0  0  0  0  0  0  0
   20.6369   45.2872   -8.2191 C   0  0  0  0  0  0  0  0  0  0  0  0
   21.3619   44.1189   -8.5334 C   0  0  0  0  0  0  0  0  0  0  0  0
   22.0576   43.4410   -7.5117 C   0  0  0  0  0  0  0  0  0  0  0  0
   21.9747   43.8665   -6.1761 C   0  0  0  0  0  0  0  0  0  0  0  0
   21.3883   43.5891   -9.9334 C   0  0  0  0  0  0  0  0  0  0  0  0
   21.4579   44.3376  -10.9071 O   0  0  0  0  0  0  0  0  0  0  0  0
   21.2578   42.2566  -10.0072 N   0  0  0  0  0  0  0  0  0  0  0  0
   21.2459   41.4353  -11.2116 C   0  0  2  0  0  0  0  0  0  0  0  0
   19.9452   41.6668  -12.0319 C   0  0  1  0  0  0  0  0  0  0  0  0
   20.0601   40.9500  -13.2399 O   0  0  0  0  0  0  0  0  0  0  0  0
   18.6111   41.3120  -11.3360 C   0  0  0  0  0  0  0  0  0  0  0  0
   17.5619   42.1489  -11.7852 O   0  0  0  0  0  0  0  0  0  0  0  0
   21.5756   39.9553  -10.8602 C   0  0  0  0  0  0  0  0  0  0  0  0
   20.7193   39.3321   -9.7627 C   0  0  0  0  0  0  0  0  0  0  0  0
   20.9779   39.6145   -8.4026 C   0  0  0  0  0  0  0  0  0  0  0  0
   20.1404   39.0960   -7.3837 C   0  0  0  0  0  0  0  0  0  0  0  0
   19.0590   38.2680   -7.7472 C   0  0  0  0  0  0  0  0  0  0  0  0
   18.8259   37.9408   -9.0959 C   0  0  0  0  0  0  0  0  0  0  0  0
   19.6603   38.4637  -10.0999 C   0  0  0  0  0  0  0  0  0  0  0  0
   20.3091   39.3502   -6.0401 O   0  0  0  0  0  0  0  0  0  0  0  0
   21.2611   40.3291   -5.6436 C   0  0  0  0  0  0  0  0  0  0  0  0
   21.1451   40.5483   -4.1270 C   0  0  0  0  0  0  0  0  0  0  0  0
   22.1825   41.5110   -3.5135 C   0  0  0  0  0  0  0  0  0  0  0  0
   22.0447   42.9755   -3.9578 C   0  0  0  0  0  0  0  0  0  0  0  0
   22.6349   43.1038   -5.2438 O   0  0  0  0  0  0  0  0  0  0  0  0
   22.0700   41.7855  -11.8375 H   0  0  0  0  0  0  0  0  0  0  0  0
   19.9060   42.7223  -12.2945 H   0  0  0  0  0  0  0  0  0  0  0  0
   17.1636   48.1506   -5.6473 H   0  0  0  0  0  0  0  0  0  0  0  0
   16.9177   48.3853   -7.3855 H   0  0  0  0  0  0  0  0  0  0  0  0
   18.2769   49.1461   -6.5891 H   0  0  0  0  0  0  0  0  0  0  0  0
   17.8504   45.8173   -8.4862 H   0  0  0  0  0  0  0  0  0  0  0  0
   16.6220   46.0408   -7.2538 H   0  0  0  0  0  0  0  0  0  0  0  0
   17.9621   44.9641   -6.9384 H   0  0  0  0  0  0  0  0  0  0  0  0
   21.1731   45.3777   -4.8466 H   0  0  0  0  0  0  0  0  0  0  0  0
   20.1309   45.8272   -9.0069 H   0  0  0  0  0  0  0  0  0  0  0  0
   22.6397   42.5587   -7.7365 H   0  0  0  0  0  0  0  0  0  0  0  0
   21.1480   41.7608   -9.1349 H   0  0  0  0  0  0  0  0  0  0  0  0
   19.9481   40.0301  -13.0514 H   0  0  0  0  0  0  0  0  0  0  0  0
   18.3261   40.2749  -11.5071 H   0  0  0  0  0  0  0  0  0  0  0  0
   18.6906   41.4513  -10.2571 H   0  0  0  0  0  0  0  0  0  0  0  0
   16.8077   41.9753  -11.2420 H   0  0  0  0  0  0  0  0  0  0  0  0
   21.5336   39.3348  -11.7551 H   0  0  0  0  0  0  0  0  0  0  0  0
   22.6139   39.8980  -10.5294 H   0  0  0  0  0  0  0  0  0  0  0  0
   21.8206   40.2419   -8.1575 H   0  0  0  0  0  0  0  0  0  0  0  0
   18.4074   37.8689   -6.9818 H   0  0  0  0  0  0  0  0  0  0  0  0
   18.0019   37.2930   -9.3578 H   0  0  0  0  0  0  0  0  0  0  0  0
   19.4658   38.2117  -11.1323 H   0  0  0  0  0  0  0  0  0  0  0  0
   22.2708   40.0054   -5.9015 H   0  0  0  0  0  0  0  0  0  0  0  0
   21.0477   41.2592   -6.1658 H   0  0  0  0  0  0  0  0  0  0  0  0
   20.1371   40.8892   -3.8859 H   0  0  0  0  0  0  0  0  0  0  0  0
   21.2606   39.5826   -3.6398 H   0  0  0  0  0  0  0  0  0  0  0  0
   22.0585   41.4781   -2.4321 H   0  0  0  0  0  0  0  0  0  0  0  0
   23.1949   41.1536   -3.7067 H   0  0  0  0  0  0  0  0  0  0  0  0
   20.9922   43.2628   -3.9273 H   0  0  0  0  0  0  0  0  0  0  0  0
   22.5817   43.6300   -3.2703 H   0  0  0  0  0  0  0  0  0  0  0  0
  1  2  1  0  0  0  0
  1 35  1  0  0  0  0
  1 36  1  0  0  0  0
  1 37  1  0  0  0  0
  2  3  1  0  0  0  0
  2  4  1  0  0  0  0
  3 38  1  0  0  0  0
  3 39  1  0  0  0  0
  3 40  1  0  0  0  0
  4  5  2  0  0  0  0
  4  6  1  0  0  0  0
  6  7  1  0  0  0  0
  6  8  2  0  0  0  0
  7 11  2  0  0  0  0
  7 41  1  0  0  0  0
  8  9  1  0  0  0  0
  8 42  1  0  0  0  0
  9 10  2  0  0  0  0
  9 12  1  0  0  0  0
 10 11  1  0  0  0  0
 10 43  1  0  0  0  0
 11 32  1  0  0  0  0
 12 13  2  0  0  0  0
 12 14  1  0  0  0  0
 14 15  1  0  0  0  0
 14 44  1  0  0  0  0
 15 33  1  6  0  0  0
 15 16  1  0  0  0  0
 15 20  1  0  0  0  0
 16 34  1  6  0  0  0
 16 17  1  0  0  0  0
 16 18  1  0  0  0  0
 17 45  1  0  0  0  0
 18 19  1  0  0  0  0
 18 46  1  0  0  0  0
 18 47  1  0  0  0  0
 19 48  1  0  0  0  0
 20 21  1  0  0  0  0
 20 49  1  0  0  0  0
 20 50  1  0  0  0  0
 21 26  1  0  0  0  0
 21 22  2  0  0  0  0
 22 23  1  0  0  0  0
 22 51  1  0  0  0  0
 23 24  2  0  0  0  0
 23 27  1  0  0  0  0
 24 25  1  0  0  0  0
 24 52  1  0  0  0  0
 25 26  2  0  0  0  0
 25 53  1  0  0  0  0
 26 54  1  0  0  0  0
 27 28  1  0  0  0  0
 28 29  1  0  0  0  0
 28 55  1  0  0  0  0
 28 56  1  0  0  0  0
 29 30  1  0  0  0  0
 29 57  1  0  0  0  0
 29 58  1  0  0  0  0
 30 31  1  0  0  0  0
 30 59  1  0  0  0  0
 30 60  1  0  0  0  0
 31 32  1  0  0  0  0
 31 61  1  0  0  0  0
 31 62  1  0  0  0  0
M  END
>  <s_m_source_file>
BACE_17.smi

>  <i_m_source_file_index>
1

>  <i_lp_mmshare_version>
42013

>  <i_f3d_flags>
0

>  <s_epik_input>
W0NIM11OKFtDSDNdKUMoPU8pYyhbY0hdYzEyKVtjSF1jKFtjSF0xKU9bQ0gyXVtDSDJdW0NIMl1bQ0gyXU9jM1tjSF1jKFtjSF1bY0hdW2NIXTMpW0NIMl1bQ0BIXShbTkhdQzI9TylbQ0BASF0oW09IXSlbQ0gyXVtPSF0=

>  <s_epik_cmdline>
J2VwaWtfcHl0aG9uJywgJy1waCcsICc3LjAnLCAnLXRuJywgJzgnLCAnLW1hJywgJzIwMCcsICctaW1hZScsICc8aW5maWxlLm1hZT4nLCAnLW9tYWUnLCAnPG91dGZpbGUubWFlPic=

>  <r_lp_tautomer_probability>
1

>  <r_epik_Ionization_Penalty>
0

>  <r_epik_Ionization_Penalty_Charging>
0

>  <r_epik_Ionization_Penalty_Neutral>
0

>  <r_epik_State_Penalty>
-0

>  <r_epik_Charging_Adjusted_Penalty>
0

>  <i_epik_Tot_Q>
0

>  <i_epik_Tot_abs_Q>
0

>  <s_lp_Force_Field>
OPLS_2005

>  <r_lp_Energy>
47.913

>  <b_lp_Chiralities_Consistent>
1

>  <s_lp_Variant>
BACE_17.smi:1-1

>  <chiral flag>
1

>  <version>
0

>  <r_i_glide_lipo>
-0.567811

>  <r_i_glide_hbond>
0

>  <r_i_glide_metal>
-0

>  <r_i_glide_rewards>
-0.490634

>  <r_i_glide_erotb>
0.306172

>  <r_i_glide_esite>
-0.00811059

>  <s_i_glide_gridfile>
second_dock_grid_2

>  <i_i_glide_lignum>
34

>  <i_i_glide_rotatable_bonds>
6

>  <r_i_docking_score>
-5.09401

>  <r_i_glide_ligand_efficiency>
-0.159188

>  <r_i_glide_ligand_efficiency_sa>
-0.50539

>  <r_i_glide_ligand_efficiency_ln>
-1.14069

>  <r_glide_XP_GScore>
-5.09401

>  <r_i_glide_gscore>
-5.09401

>  <r_i_glide_evdw>
-37.0439

>  <r_i_glide_ecoul>
-6.42162

>  <r_i_glide_energy>
-43.4655

>  <r_i_glide_einternal>
9.07415

>  <r_i_glide_emodel>
-52.4306

>  <r_glide_XP_HBond>
-1.21716

>  <i_i_glide_confnum>
1

>  <i_i_glide_posenum>
14

>  <r_i_glide_eff_state_penalty>
-0

>  <i_glide_XP_PoseRank>
4

>  <chiral flag>
1

$$$$
