BACE_14.smi:1
 OpenBabel10031817133D
Structure written by MMmdl.
 85 89  0  0  1  0  0  0  0  0999 V2000
   23.9104   46.7542  -15.4036 C   0  0  0  0  0  0  0  0  0  0  0  0
   24.7680   46.7485  -14.1288 C   0  0  0  0  0  0  0  0  0  0  0  0
   25.1619   48.1690  -13.6978 C   0  0  0  0  0  0  0  0  0  0  0  0
   24.0828   45.9887  -13.0014 C   0  0  0  0  0  0  0  0  0  0  0  0
   22.8300   46.4056  -12.5088 C   0  0  0  0  0  0  0  0  0  0  0  0
   22.1964   45.6667  -11.4955 C   0  0  0  0  0  0  0  0  0  0  0  0
   22.8083   44.5161  -10.9696 C   0  0  0  0  0  0  0  0  0  0  0  0
   24.0811   44.0890  -11.4259 C   0  0  0  0  0  0  0  0  0  0  0  0
   24.7023   44.8486  -12.4450 C   0  0  0  0  0  0  0  0  0  0  0  0
   24.7815   42.8845  -10.8160 C   0  0  0  0  0  0  0  0  0  0  0  0
   26.0408   42.2856  -11.4210 C   0  0  0  0  0  0  0  0  0  0  0  0
   26.1288   43.0923  -10.1502 C   0  0  0  0  0  0  0  0  0  0  0  0
   23.8602   41.8817  -10.2732 N   0  0  0  0  0  0  0  0  0  0  0  0
   23.5534   41.9603   -8.8428 C   0  0  0  0  0  0  0  0  0  0  0  0
   22.7199   40.7374   -8.4127 C   0  0  2  0  0  0  0  0  0  0  0  0
   21.7595   40.9812   -7.2185 C   0  0  2  0  0  0  0  0  0  0  0  0
   21.0017   39.6947   -6.7854 C   0  0  0  0  0  0  0  0  0  0  0  0
   19.9304   39.2190   -7.7622 C   0  0  0  0  0  0  0  0  0  0  0  0
   20.2746   38.4554   -8.8956 C   0  0  0  0  0  0  0  0  0  0  0  0
   19.2743   38.0353   -9.7913 C   0  0  0  0  0  0  0  0  0  0  0  0
   17.9253   38.3543   -9.5535 C   0  0  0  0  0  0  0  0  0  0  0  0
   17.5636   39.1142   -8.4177 C   0  0  0  0  0  0  0  0  0  0  0  0
   18.5757   39.5287   -7.5284 C   0  0  0  0  0  0  0  0  0  0  0  0
   16.2731   39.4898   -8.1152 O   0  0  0  0  0  0  0  0  0  0  0  0
   15.3071   39.5698   -9.1616 C   0  0  0  0  0  0  0  0  0  0  0  0
   15.6612   40.6796  -10.1722 C   0  0  0  0  0  0  0  0  0  0  0  0
   15.8022   42.0661   -9.5200 C   0  0  0  0  0  0  0  0  0  0  0  0
   16.5537   43.0566  -10.4269 C   0  0  0  0  0  0  0  0  0  0  0  0
   16.7032   44.3771   -9.8251 N   0  0  0  0  0  0  0  0  0  0  0  0
   17.5983   44.6341   -8.7754 C   0  0  0  0  0  0  0  0  0  0  0  0
   18.5129   43.6722   -8.2807 C   0  0  0  0  0  0  0  0  0  0  0  0
   19.3738   43.9795   -7.2029 C   0  0  0  0  0  0  0  0  0  0  0  0
   19.2965   45.2593   -6.6043 C   0  0  0  0  0  0  0  0  0  0  0  0
   18.4130   46.2416   -7.1084 C   0  0  0  0  0  0  0  0  0  0  0  0
   17.5669   45.9152   -8.1909 C   0  0  0  0  0  0  0  0  0  0  0  0
   18.3009   47.5699   -6.4508 C   0  0  0  0  0  0  0  0  0  0  0  0
   18.4601   47.7497   -5.2434 O   0  0  0  0  0  0  0  0  0  0  0  0
   17.9590   48.7658   -7.3380 C   0  0  0  0  0  0  0  0  0  0  0  0
   20.3310   42.9535   -6.6479 C   0  0  0  0  0  0  0  0  0  0  0  0
   20.6876   43.0022   -5.4724 O   0  0  0  0  0  0  0  0  0  0  0  0
   20.8075   42.0558   -7.5290 N   0  0  0  0  0  0  0  0  0  0  0  0
   23.6589   39.7502   -8.0398 O   0  0  0  0  0  0  0  0  0  0  0  0
   22.1418   40.3763   -9.2620 H   0  0  0  0  0  0  0  0  0  0  0  0
   22.3800   41.2949   -6.3777 H   0  0  0  0  0  0  0  0  0  0  0  0
   24.4316   47.2405  -16.2259 H   0  0  0  0  0  0  0  0  0  0  0  0
   22.9680   47.2813  -15.2525 H   0  0  0  0  0  0  0  0  0  0  0  0
   23.6721   45.7385  -15.7195 H   0  0  0  0  0  0  0  0  0  0  0  0
   25.6913   46.2199  -14.3726 H   0  0  0  0  0  0  0  0  0  0  0  0
   25.6915   48.6859  -14.4962 H   0  0  0  0  0  0  0  0  0  0  0  0
   25.8231   48.1447  -12.8313 H   0  0  0  0  0  0  0  0  0  0  0  0
   24.2890   48.7684  -13.4365 H   0  0  0  0  0  0  0  0  0  0  0  0
   22.3431   47.2767  -12.9219 H   0  0  0  0  0  0  0  0  0  0  0  0
   21.2320   45.9785  -11.1241 H   0  0  0  0  0  0  0  0  0  0  0  0
   22.2838   43.9712  -10.2026 H   0  0  0  0  0  0  0  0  0  0  0  0
   25.6775   44.5671  -12.8134 H   0  0  0  0  0  0  0  0  0  0  0  0
   26.2106   41.2156  -11.3063 H   0  0  0  0  0  0  0  0  0  0  0  0
   26.4636   42.7107  -12.3249 H   0  0  0  0  0  0  0  0  0  0  0  0
   26.5872   44.0793  -10.2246 H   0  0  0  0  0  0  0  0  0  0  0  0
   26.3666   42.5481   -9.2422 H   0  0  0  0  0  0  0  0  0  0  0  0
   24.1735   40.9502  -10.5338 H   0  0  0  0  0  0  0  0  0  0  0  0
   23.0155   42.8828   -8.6365 H   0  0  0  0  0  0  0  0  0  0  0  0
   24.4628   42.0198   -8.2441 H   0  0  0  0  0  0  0  0  0  0  0  0
   21.7018   38.8776   -6.6040 H   0  0  0  0  0  0  0  0  0  0  0  0
   20.5294   39.8769   -5.8202 H   0  0  0  0  0  0  0  0  0  0  0  0
   21.3059   38.1913   -9.0816 H   0  0  0  0  0  0  0  0  0  0  0  0
   19.5402   37.4604  -10.6646 H   0  0  0  0  0  0  0  0  0  0  0  0
   17.1862   38.0057  -10.2571 H   0  0  0  0  0  0  0  0  0  0  0  0
   18.3027   40.1109   -6.6655 H   0  0  0  0  0  0  0  0  0  0  0  0
   15.1778   38.6065   -9.6551 H   0  0  0  0  0  0  0  0  0  0  0  0
   14.3438   39.7924   -8.7026 H   0  0  0  0  0  0  0  0  0  0  0  0
   16.5875   40.4234  -10.6850 H   0  0  0  0  0  0  0  0  0  0  0  0
   14.8966   40.7194  -10.9473 H   0  0  0  0  0  0  0  0  0  0  0  0
   14.8156   42.4536   -9.2674 H   0  0  0  0  0  0  0  0  0  0  0  0
   16.3355   41.9710   -8.5741 H   0  0  0  0  0  0  0  0  0  0  0  0
   17.5355   42.6673  -10.7001 H   0  0  0  0  0  0  0  0  0  0  0  0
   16.0037   43.1770  -11.3598 H   0  0  0  0  0  0  0  0  0  0  0  0
   16.0529   45.0973  -10.0997 H   0  0  0  0  0  0  0  0  0  0  0  0
   18.5449   42.6833   -8.7123 H   0  0  0  0  0  0  0  0  0  0  0  0
   19.9327   45.4966   -5.7616 H   0  0  0  0  0  0  0  0  0  0  0  0
   16.8622   46.6408   -8.5662 H   0  0  0  0  0  0  0  0  0  0  0  0
   16.9203   48.7155   -7.6667 H   0  0  0  0  0  0  0  0  0  0  0  0
   18.6069   48.7847   -8.2161 H   0  0  0  0  0  0  0  0  0  0  0  0
   18.1014   49.6961   -6.7875 H   0  0  0  0  0  0  0  0  0  0  0  0
   20.4546   42.0913   -8.4734 H   0  0  0  0  0  0  0  0  0  0  0  0
   24.0622   39.3747   -8.8142 H   0  0  0  0  0  0  0  0  0  0  0  0
  1  2  1  0  0  0  0
  1 45  1  0  0  0  0
  1 46  1  0  0  0  0
  1 47  1  0  0  0  0
  2  3  1  0  0  0  0
  2  4  1  0  0  0  0
  2 48  1  0  0  0  0
  3 49  1  0  0  0  0
  3 50  1  0  0  0  0
  3 51  1  0  0  0  0
  4  9  1  0  0  0  0
  4  5  2  0  0  0  0
  5  6  1  0  0  0  0
  5 52  1  0  0  0  0
  6  7  2  0  0  0  0
  6 53  1  0  0  0  0
  7  8  1  0  0  0  0
  7 54  1  0  0  0  0
  8  9  2  0  0  0  0
  8 10  1  0  0  0  0
  9 55  1  0  0  0  0
 10 12  1  0  0  0  0
 10 11  1  0  0  0  0
 10 13  1  0  0  0  0
 11 12  1  0  0  0  0
 11 56  1  0  0  0  0
 11 57  1  0  0  0  0
 12 58  1  0  0  0  0
 12 59  1  0  0  0  0
 13 14  1  0  0  0  0
 13 60  1  0  0  0  0
 14 15  1  0  0  0  0
 14 61  1  0  0  0  0
 14 62  1  0  0  0  0
 15 43  1  6  0  0  0
 15 16  1  0  0  0  0
 15 42  1  0  0  0  0
 16 44  1  1  0  0  0
 16 41  1  0  0  0  0
 16 17  1  0  0  0  0
 17 18  1  0  0  0  0
 17 63  1  0  0  0  0
 17 64  1  0  0  0  0
 18 23  1  0  0  0  0
 18 19  2  0  0  0  0
 19 20  1  0  0  0  0
 19 65  1  0  0  0  0
 20 21  2  0  0  0  0
 20 66  1  0  0  0  0
 21 22  1  0  0  0  0
 21 67  1  0  0  0  0
 22 23  2  0  0  0  0
 22 24  1  0  0  0  0
 23 68  1  0  0  0  0
 24 25  1  0  0  0  0
 25 26  1  0  0  0  0
 25 69  1  0  0  0  0
 25 70  1  0  0  0  0
 26 27  1  0  0  0  0
 26 71  1  0  0  0  0
 26 72  1  0  0  0  0
 27 28  1  0  0  0  0
 27 73  1  0  0  0  0
 27 74  1  0  0  0  0
 28 29  1  0  0  0  0
 28 75  1  0  0  0  0
 28 76  1  0  0  0  0
 29 30  1  0  0  0  0
 29 77  1  0  0  0  0
 30 35  1  0  0  0  0
 30 31  2  0  0  0  0
 31 32  1  0  0  0  0
 31 78  1  0  0  0  0
 32 33  2  0  0  0  0
 32 39  1  0  0  0  0
 33 34  1  0  0  0  0
 33 79  1  0  0  0  0
 34 35  2  0  0  0  0
 34 36  1  0  0  0  0
 35 80  1  0  0  0  0
 36 37  2  0  0  0  0
 36 38  1  0  0  0  0
 38 81  1  0  0  0  0
 38 82  1  0  0  0  0
 38 83  1  0  0  0  0
 39 40  2  0  0  0  0
 39 41  1  0  0  0  0
 41 84  1  0  0  0  0
 42 85  1  0  0  0  0
M  END
>  <s_m_source_file>
BACE_14.smi

>  <i_m_source_file_index>
1

>  <i_lp_mmshare_version>
42013

>  <i_f3d_flags>
0

>  <s_epik_input>
W0NIM11bQ0hdKFtDSDNdKWMxW2NIXVtjSF1bY0hdYyhbY0hdMSlDMihbQ0gyXVtDSDJdMilbTkhdW0NIMl1bQ0BASF0oW09IXSlbQ0BIXShbQ0gyXTMpW05IXUMoPU8pYyhbY0hdYyhbY0hdNClDKD1PKVtDSDNdKVtjSF1jNFtOSF1bQ0gyXVtDSDJdW0NIMl1bQ0gyXU9jKFtjSF01KVtjSF1bY0hdW2NIXWMzNQ==

>  <s_epik_cmdline>
J2VwaWtfcHl0aG9uJywgJy1waCcsICc3LjAnLCAnLXRuJywgJzgnLCAnLW1hJywgJzIwMCcsICctaW1hZScsICc8aW5maWxlLm1hZT4nLCAnLW9tYWUnLCAnPG91dGZpbGUubWFlPic=

>  <r_lp_tautomer_probability>
0.99995

>  <r_epik_Ionization_Penalty>
0.323

>  <r_epik_Ionization_Penalty_Charging>
0

>  <r_epik_Ionization_Penalty_Neutral>
0.323

>  <r_epik_State_Penalty>
0.3176

>  <r_epik_Charging_Adjusted_Penalty>
0.317604

>  <i_epik_Tot_Q>
0

>  <i_epik_Tot_abs_Q>
0

>  <s_lp_Force_Field>
OPLS_2005

>  <r_lp_Energy>
47.6892

>  <b_lp_Chiralities_Consistent>
1

>  <s_lp_Variant>
BACE_14.smi:1-1

>  <chiral flag>
1

>  <version>
0

>  <r_i_glide_lipo>
-0.807694

>  <r_i_glide_hbond>
-1.1636

>  <r_i_glide_metal>
-0

>  <r_i_glide_rewards>
0

>  <r_i_glide_erotb>
0.231492

>  <r_i_glide_esite>
-0.00379964

>  <s_i_glide_gridfile>
second_dock_grid_2

>  <i_i_glide_lignum>
28

>  <i_i_glide_rotatable_bonds>
8

>  <r_i_docking_score>
-3.04372

>  <r_i_glide_ligand_efficiency>
-0.0724696

>  <r_i_glide_ligand_efficiency_sa>
-0.251906

>  <r_i_glide_ligand_efficiency_ln>
-0.642452

>  <r_glide_XP_GScore>
-3.36132

>  <r_i_glide_gscore>
-3.36132

>  <r_i_glide_evdw>
-41.8511

>  <r_i_glide_ecoul>
-6.70833

>  <r_i_glide_energy>
-48.5595

>  <r_i_glide_einternal>
5.1575

>  <r_i_glide_emodel>
-68.3515

>  <r_glide_XP_HBond>
-1.34839

>  <i_i_glide_confnum>
1

>  <i_i_glide_posenum>
5

>  <r_i_glide_eff_state_penalty>
0.3176

>  <i_glide_XP_PoseRank>
2

>  <chiral flag>
1

$$$$
