BACE_20.smi:1
 OpenBabel10031817133D
Structure written by MMmdl.
 78 79  0  0  1  0  0  0  0  0999 V2000
   22.5506   47.4883  -15.4330 C   0  0  0  0  0  0  0  0  0  0  0  0
   23.4153   47.3250  -14.1785 C   0  0  0  0  0  0  0  0  0  0  0  0
   24.5131   46.2676  -14.3509 C   0  0  0  0  0  0  0  0  0  0  0  0
   25.4045   46.1399  -13.1081 C   0  0  0  0  0  0  0  0  0  0  0  0
   26.3274   45.0216  -13.2348 N   0  0  0  0  0  0  0  0  0  0  0  0
   26.2545   43.9231  -12.3719 C   0  0  0  0  0  0  0  0  0  0  0  0
   25.0789   43.5396  -11.6891 C   0  0  0  0  0  0  0  0  0  0  0  0
   25.1209   42.4361  -10.8067 C   0  0  0  0  0  0  0  0  0  0  0  0
   26.3523   41.7507  -10.6695 C   0  0  0  0  0  0  0  0  0  0  0  0
   27.4696   42.2027  -11.3985 C   0  0  0  0  0  0  0  0  0  0  0  0
   27.4173   43.2663  -12.2323 N   0  0  0  0  0  0  0  0  0  0  0  0
   28.6758   41.5556  -11.2418 O   0  0  0  0  0  0  0  0  0  0  0  0
   29.7722   41.9545  -12.0570 C   0  0  0  0  0  0  0  0  0  0  0  0
   23.8805   42.0340  -10.0455 C   0  0  0  0  0  0  0  0  0  0  0  0
   22.7952   42.5621  -10.2917 O   0  0  0  0  0  0  0  0  0  0  0  0
   24.0523   41.1415   -9.0521 N   0  0  0  0  0  0  0  0  0  0  0  0
   23.0756   40.7355   -8.0248 C   0  0  1  0  0  0  0  0  0  0  0  0
   22.6783   41.9936   -7.1973 C   0  0  0  0  0  0  0  0  0  0  0  0
   22.0213   41.8044   -5.8333 C   0  0  0  0  0  0  0  0  0  0  0  0
   22.4665   40.8276   -4.9164 C   0  0  0  0  0  0  0  0  0  0  0  0
   21.9097   40.7460   -3.6274 C   0  0  0  0  0  0  0  0  0  0  0  0
   20.9025   41.6455   -3.2348 C   0  0  0  0  0  0  0  0  0  0  0  0
   20.4602   42.6295   -4.1371 C   0  0  0  0  0  0  0  0  0  0  0  0
   21.0105   42.7036   -5.4304 C   0  0  0  0  0  0  0  0  0  0  0  0
   21.8696   39.9202   -8.6029 C   0  0  2  0  0  0  0  0  0  0  0  0
   21.3716   38.7845   -7.6634 C   0  0  0  0  0  0  0  0  0  0  0  0
   19.8415   38.6170   -7.4638 C   0  0  1  0  0  0  0  0  0  0  0  0
   19.1923   39.8614   -6.8408 C   0  0  0  0  0  0  0  0  0  0  0  0
   19.0418   38.1533   -8.6954 C   0  0  0  0  0  0  0  0  0  0  0  0
   19.3655   38.4856   -9.8339 O   0  0  0  0  0  0  0  0  0  0  0  0
   17.9623   37.3974   -8.4391 N   0  0  0  0  0  0  0  0  0  0  0  0
   16.9675   36.9810   -9.4169 C   0  0  0  0  0  0  0  0  0  0  0  0
   15.6571   37.7609   -9.2349 C   0  0  0  0  0  0  0  0  0  0  0  0
   15.7675   39.2481   -9.6046 C   0  0  0  0  0  0  0  0  0  0  0  0
   14.4414   39.9866   -9.4105 C   0  0  0  0  0  0  0  0  0  0  0  0
   22.2234   39.3108   -9.8301 O   0  0  0  0  0  0  0  0  0  0  0  0
   23.6607   40.0676   -7.3951 H   0  0  0  0  0  0  0  0  0  0  0  0
   21.0601   40.6107   -8.8371 H   0  0  0  0  0  0  0  0  0  0  0  0
   19.7347   37.8193   -6.7280 H   0  0  0  0  0  0  0  0  0  0  0  0
   21.7709   48.2317  -15.2736 H   0  0  0  0  0  0  0  0  0  0  0  0
   22.0652   46.5500  -15.7005 H   0  0  0  0  0  0  0  0  0  0  0  0
   23.1489   47.8089  -16.2856 H   0  0  0  0  0  0  0  0  0  0  0  0
   22.7792   47.0523  -13.3346 H   0  0  0  0  0  0  0  0  0  0  0  0
   23.8650   48.2874  -13.9274 H   0  0  0  0  0  0  0  0  0  0  0  0
   25.1304   46.5237  -15.2139 H   0  0  0  0  0  0  0  0  0  0  0  0
   24.0601   45.3012  -14.5731 H   0  0  0  0  0  0  0  0  0  0  0  0
   24.7978   46.0633  -12.2057 H   0  0  0  0  0  0  0  0  0  0  0  0
   25.9914   47.0512  -12.9885 H   0  0  0  0  0  0  0  0  0  0  0  0
   27.2524   45.2326  -13.5773 H   0  0  0  0  0  0  0  0  0  0  0  0
   24.1482   44.0676  -11.8341 H   0  0  0  0  0  0  0  0  0  0  0  0
   26.4645   40.8861  -10.0327 H   0  0  0  0  0  0  0  0  0  0  0  0
   30.6442   41.3492  -11.8130 H   0  0  0  0  0  0  0  0  0  0  0  0
   30.0394   42.9984  -11.8899 H   0  0  0  0  0  0  0  0  0  0  0  0
   29.5489   41.8065  -13.1152 H   0  0  0  0  0  0  0  0  0  0  0  0
   24.9749   40.7427   -8.9675 H   0  0  0  0  0  0  0  0  0  0  0  0
   23.5738   42.5887   -7.0066 H   0  0  0  0  0  0  0  0  0  0  0  0
   22.0257   42.6243   -7.8021 H   0  0  0  0  0  0  0  0  0  0  0  0
   23.2603   40.1495   -5.1794 H   0  0  0  0  0  0  0  0  0  0  0  0
   22.2698   40.0082   -2.9252 H   0  0  0  0  0  0  0  0  0  0  0  0
   20.4760   41.5882   -2.2445 H   0  0  0  0  0  0  0  0  0  0  0  0
   19.6894   43.3233   -3.8398 H   0  0  0  0  0  0  0  0  0  0  0  0
   20.6613   43.4687   -6.1075 H   0  0  0  0  0  0  0  0  0  0  0  0
   21.7937   38.9299   -6.6718 H   0  0  0  0  0  0  0  0  0  0  0  0
   21.7952   37.8320   -7.9850 H   0  0  0  0  0  0  0  0  0  0  0  0
   19.6608   40.0984   -5.8859 H   0  0  0  0  0  0  0  0  0  0  0  0
   18.1305   39.7011   -6.6467 H   0  0  0  0  0  0  0  0  0  0  0  0
   19.2735   40.7401   -7.4787 H   0  0  0  0  0  0  0  0  0  0  0  0
   17.7422   37.1827   -7.4726 H   0  0  0  0  0  0  0  0  0  0  0  0
   16.7802   35.9174   -9.2687 H   0  0  0  0  0  0  0  0  0  0  0  0
   17.3359   37.0967  -10.4365 H   0  0  0  0  0  0  0  0  0  0  0  0
   15.3277   37.6762   -8.1970 H   0  0  0  0  0  0  0  0  0  0  0  0
   14.8788   37.2989   -9.8438 H   0  0  0  0  0  0  0  0  0  0  0  0
   16.0928   39.3492  -10.6415 H   0  0  0  0  0  0  0  0  0  0  0  0
   16.5292   39.7301   -8.9895 H   0  0  0  0  0  0  0  0  0  0  0  0
   14.5389   41.0442   -9.6546 H   0  0  0  0  0  0  0  0  0  0  0  0
   14.0983   39.9171   -8.3777 H   0  0  0  0  0  0  0  0  0  0  0  0
   13.6608   39.5661  -10.0416 H   0  0  0  0  0  0  0  0  0  0  0  0
   23.0640   38.8834   -9.7198 H   0  0  0  0  0  0  0  0  0  0  0  0
  1  2  1  0  0  0  0
  1 40  1  0  0  0  0
  1 41  1  0  0  0  0
  1 42  1  0  0  0  0
  2  3  1  0  0  0  0
  2 43  1  0  0  0  0
  2 44  1  0  0  0  0
  3  4  1  0  0  0  0
  3 45  1  0  0  0  0
  3 46  1  0  0  0  0
  4  5  1  0  0  0  0
  4 47  1  0  0  0  0
  4 48  1  0  0  0  0
  5  6  1  0  0  0  0
  5 49  1  0  0  0  0
  6 11  1  0  0  0  0
  6  7  2  0  0  0  0
  7  8  1  0  0  0  0
  7 50  1  0  0  0  0
  8  9  2  0  0  0  0
  8 14  1  0  0  0  0
  9 10  1  0  0  0  0
  9 51  1  0  0  0  0
 10 11  2  0  0  0  0
 10 12  1  0  0  0  0
 12 13  1  0  0  0  0
 13 52  1  0  0  0  0
 13 53  1  0  0  0  0
 13 54  1  0  0  0  0
 14 15  2  0  0  0  0
 14 16  1  0  0  0  0
 16 17  1  0  0  0  0
 16 55  1  0  0  0  0
 17 37  1  1  0  0  0
 17 18  1  0  0  0  0
 17 25  1  0  0  0  0
 18 19  1  0  0  0  0
 18 56  1  0  0  0  0
 18 57  1  0  0  0  0
 19 24  1  0  0  0  0
 19 20  2  0  0  0  0
 20 21  1  0  0  0  0
 20 58  1  0  0  0  0
 21 22  2  0  0  0  0
 21 59  1  0  0  0  0
 22 23  1  0  0  0  0
 22 60  1  0  0  0  0
 23 24  2  0  0  0  0
 23 61  1  0  0  0  0
 24 62  1  0  0  0  0
 25 38  1  6  0  0  0
 25 26  1  0  0  0  0
 25 36  1  0  0  0  0
 26 27  1  0  0  0  0
 26 63  1  0  0  0  0
 26 64  1  0  0  0  0
 27 39  1  1  0  0  0
 27 28  1  0  0  0  0
 27 29  1  0  0  0  0
 28 65  1  0  0  0  0
 28 66  1  0  0  0  0
 28 67  1  0  0  0  0
 29 30  2  0  0  0  0
 29 31  1  0  0  0  0
 31 32  1  0  0  0  0
 31 68  1  0  0  0  0
 32 33  1  0  0  0  0
 32 69  1  0  0  0  0
 32 70  1  0  0  0  0
 33 34  1  0  0  0  0
 33 71  1  0  0  0  0
 33 72  1  0  0  0  0
 34 35  1  0  0  0  0
 34 73  1  0  0  0  0
 34 74  1  0  0  0  0
 35 75  1  0  0  0  0
 35 76  1  0  0  0  0
 35 77  1  0  0  0  0
 36 78  1  0  0  0  0
M  END
>  <s_m_source_file>
BACE_20.smi

>  <i_m_source_file_index>
1

>  <i_lp_mmshare_version>
42013

>  <i_f3d_flags>
0

>  <s_epik_input>
W0NIM11bQ0gyXVtDSDJdW0NIMl1bTkhdYzFbY0hdYyhbY0hdYyhuMSlPW0NIM10pQyg9TylbTkhdW0NAQEhdKFtDSDJdYzJbY0hdW2NIXVtjSF1bY0hdW2NIXTIpW0NAQEhdKFtPSF0pW0NIMl1bQ0BASF0oW0NIM10pQyg9TylbTkhdW0NIMl1bQ0gyXVtDSDJdW0NIM10=

>  <s_epik_cmdline>
J2VwaWtfcHl0aG9uJywgJy1waCcsICc3LjAnLCAnLXRuJywgJzgnLCAnLW1hJywgJzIwMCcsICctaW1hZScsICc8aW5maWxlLm1hZT4nLCAnLW9tYWUnLCAnPG91dGZpbGUubWFlPic=

>  <r_lp_tautomer_probability>
1

>  <r_epik_Ionization_Penalty>
0

>  <r_epik_Ionization_Penalty_Charging>
0

>  <r_epik_Ionization_Penalty_Neutral>
0

>  <r_epik_State_Penalty>
-0

>  <r_epik_Charging_Adjusted_Penalty>
0

>  <i_epik_Tot_Q>
0

>  <i_epik_Tot_abs_Q>
0

>  <s_lp_Force_Field>
OPLS_2005

>  <r_lp_Energy>
20.6133

>  <b_lp_Chiralities_Consistent>
1

>  <s_lp_Variant>
BACE_20.smi:1-1

>  <chiral flag>
1

>  <version>
0

>  <r_i_glide_lipo>
-0.356177

>  <r_i_glide_hbond>
-0.618841

>  <r_i_glide_metal>
-0

>  <r_i_glide_rewards>
-0.170657

>  <r_i_glide_erotb>
1.14898

>  <r_i_glide_esite>
-0.0668184

>  <s_i_glide_gridfile>
second_dock_grid_2

>  <i_i_glide_lignum>
37

>  <i_i_glide_rotatable_bonds>
19

>  <r_i_docking_score>
-4.66447

>  <r_i_glide_ligand_efficiency>
-0.129568

>  <r_i_glide_ligand_efficiency_sa>
-0.427826

>  <r_i_glide_ligand_efficiency_ln>
-1.01766

>  <r_glide_XP_GScore>
-4.66447

>  <r_i_glide_gscore>
-4.66447

>  <r_i_glide_evdw>
-46.8958

>  <r_i_glide_ecoul>
-4.06996

>  <r_i_glide_energy>
-50.9658

>  <r_i_glide_einternal>
15.0239

>  <r_i_glide_emodel>
-68.8381

>  <r_glide_XP_HBond>
-1.25393

>  <i_i_glide_confnum>
1

>  <i_i_glide_posenum>
3

>  <r_i_glide_eff_state_penalty>
-0

>  <i_glide_XP_PoseRank>
2

>  <chiral flag>
1

$$$$
