BACE_13.smi:1
 OpenBabel10031817133D
Structure written by MMmdl.
 77 80  0  0  1  0  0  0  0  0999 V2000
   20.3321   42.6833   -1.1707 C   0  0  0  0  0  0  0  0  0  0  0  0
   20.3717   42.0176   -2.4195 O   0  0  0  0  0  0  0  0  0  0  0  0
   21.4980   42.3599   -3.2135 C   0  0  0  0  0  0  0  0  0  0  0  0
   21.2047   42.0823   -4.6720 C   0  0  0  0  0  0  0  0  0  0  0  0
   20.3414   42.9495   -5.3672 C   0  0  0  0  0  0  0  0  0  0  0  0
   19.9255   42.6504   -6.6824 C   0  0  0  0  0  0  0  0  0  0  0  0
   20.4646   41.5111   -7.3254 C   0  0  0  0  0  0  0  0  0  0  0  0
   21.3459   40.6382   -6.6397 C   0  0  0  0  0  0  0  0  0  0  0  0
   21.7118   40.9324   -5.3098 C   0  0  0  0  0  0  0  0  0  0  0  0
   21.8467   39.4622   -7.2228 N   0  0  0  0  0  0  0  0  0  0  0  0
   21.0985   38.8284   -8.3003 C   0  0  0  0  0  0  0  0  0  0  0  0
   21.5863   39.2643   -9.6877 C   0  0  0  0  0  0  0  0  0  0  0  0
   20.4847   39.1511  -10.7542 C   0  0  0  0  0  0  0  0  0  0  0  0
   20.9112   39.6721  -12.1415 C   0  0  0  0  0  0  0  0  0  0  0  0
   21.6402   40.8926  -12.0851 O   0  0  0  0  0  0  0  0  0  0  0  0
   21.0329   42.0412  -11.6358 C   0  0  0  0  0  0  0  0  0  0  0  0
   21.8814   43.1174  -11.3096 C   0  0  0  0  0  0  0  0  0  0  0  0
   21.3532   44.3306  -10.8330 C   0  0  0  0  0  0  0  0  0  0  0  0
   19.9640   44.4701  -10.6609 C   0  0  0  0  0  0  0  0  0  0  0  0
   19.1043   43.3940  -10.9627 C   0  0  0  0  0  0  0  0  0  0  0  0
   19.6356   42.1931  -11.4752 C   0  0  0  0  0  0  0  0  0  0  0  0
   17.6129   43.5137  -10.7016 C   0  0  0  0  0  0  0  0  0  0  0  0
   17.2289   43.6612   -9.2043 C   0  0  2  0  0  0  0  0  0  0  0  0
   18.1684   42.9477   -8.3275 N   0  0  0  0  0  0  0  0  0  0  0  0
   18.8919   43.5210   -7.3457 C   0  0  0  0  0  0  0  0  0  0  0  0
   18.6967   44.6724   -6.9530 O   0  0  0  0  0  0  0  0  0  0  0  0
   15.7353   43.2971   -8.9529 C   0  0  1  0  0  0  0  0  0  0  0  0
   15.3174   41.8318   -8.6157 C   0  0  1  0  0  0  0  0  0  0  0  0
   15.8341   40.7576   -9.5965 C   0  0  0  0  0  0  0  0  0  0  0  0
   15.3389   39.4724   -9.2286 O   0  0  0  0  0  0  0  0  0  0  0  0
   15.6855   39.0376   -7.9087 C   0  0  2  0  0  0  0  0  0  0  0  0
   15.1819   40.0776   -6.8925 C   0  0  0  0  0  0  0  0  0  0  0  0
   15.6597   41.4329   -7.2381 N   0  3  0  0  0  0  0  0  0  0  0  0
   17.1977   38.7488   -7.7698 C   0  0  0  0  0  0  0  0  0  0  0  0
   17.7054   37.9843   -8.8567 O   0  0  0  0  0  0  0  0  0  0  0  0
   17.3359   36.6159   -8.8188 C   0  0  0  0  0  0  0  0  0  0  0  0
   15.1750   44.2276   -8.0411 O   0  0  0  0  0  0  0  0  0  0  0  0
   17.3421   44.7320   -9.0162 H   0  0  0  0  0  0  0  0  0  0  0  0
   15.2120   43.5354   -9.8807 H   0  0  0  0  0  0  0  0  0  0  0  0
   14.2273   41.8058   -8.6703 H   0  0  0  0  0  0  0  0  0  0  0  0
   15.1437   38.1096   -7.7252 H   0  0  0  0  0  0  0  0  0  0  0  0
   19.5148   42.2829   -0.5702 H   0  0  0  0  0  0  0  0  0  0  0  0
   20.1534   43.7501   -1.3040 H   0  0  0  0  0  0  0  0  0  0  0  0
   21.2615   42.5506   -0.6189 H   0  0  0  0  0  0  0  0  0  0  0  0
   22.3708   41.7989   -2.8755 H   0  0  0  0  0  0  0  0  0  0  0  0
   21.7439   43.4175   -3.1128 H   0  0  0  0  0  0  0  0  0  0  0  0
   19.9367   43.8058   -4.8463 H   0  0  0  0  0  0  0  0  0  0  0  0
   20.1847   41.2945   -8.3451 H   0  0  0  0  0  0  0  0  0  0  0  0
   22.3587   40.2600   -4.7648 H   0  0  0  0  0  0  0  0  0  0  0  0
   22.3996   38.8510   -6.6383 H   0  0  0  0  0  0  0  0  0  0  0  0
   20.0372   39.0387   -8.1765 H   0  0  0  0  0  0  0  0  0  0  0  0
   21.1925   37.7503   -8.2085 H   0  0  0  0  0  0  0  0  0  0  0  0
   22.4590   38.6799   -9.9787 H   0  0  0  0  0  0  0  0  0  0  0  0
   21.9234   40.2988   -9.6363 H   0  0  0  0  0  0  0  0  0  0  0  0
   19.6111   39.6988  -10.4073 H   0  0  0  0  0  0  0  0  0  0  0  0
   20.1547   38.1169  -10.8413 H   0  0  0  0  0  0  0  0  0  0  0  0
   20.0608   39.7525  -12.8181 H   0  0  0  0  0  0  0  0  0  0  0  0
   21.5827   38.9503  -12.6033 H   0  0  0  0  0  0  0  0  0  0  0  0
   22.9495   43.0074  -11.4326 H   0  0  0  0  0  0  0  0  0  0  0  0
   22.0135   45.1479  -10.5896 H   0  0  0  0  0  0  0  0  0  0  0  0
   19.5647   45.3944  -10.2709 H   0  0  0  0  0  0  0  0  0  0  0  0
   18.9594   41.3904  -11.7249 H   0  0  0  0  0  0  0  0  0  0  0  0
   17.1282   42.6387  -11.1311 H   0  0  0  0  0  0  0  0  0  0  0  0
   17.2283   44.3642  -11.2646 H   0  0  0  0  0  0  0  0  0  0  0  0
   18.4245   42.0068   -8.5884 H   0  0  0  0  0  0  0  0  0  0  0  0
   16.9243   40.7410   -9.6409 H   0  0  0  0  0  0  0  0  0  0  0  0
   15.4835   40.9740  -10.6056 H   0  0  0  0  0  0  0  0  0  0  0  0
   15.4949   39.8156   -5.8803 H   0  0  0  0  0  0  0  0  0  0  0  0
   14.0921   40.0960   -6.8751 H   0  0  0  0  0  0  0  0  0  0  0  0
   16.6579   41.4731   -7.0895 H   0  0  0  0  0  0  0  0  0  0  0  0
   17.7574   39.6836   -7.7461 H   0  0  0  0  0  0  0  0  0  0  0  0
   17.4071   38.2551   -6.8201 H   0  0  0  0  0  0  0  0  0  0  0  0
   17.8207   36.0898   -9.6404 H   0  0  0  0  0  0  0  0  0  0  0  0
   16.2594   36.4800   -8.9265 H   0  0  0  0  0  0  0  0  0  0  0  0
   17.6597   36.1500   -7.8868 H   0  0  0  0  0  0  0  0  0  0  0  0
   15.5450   44.0902   -7.1706 H   0  0  0  0  0  0  0  0  0  0  0  0
   15.2233   42.0678   -6.5731 H   0  0  0  0  0  0  0  0  0  0  0  0
  1  2  1  0  0  0  0
  1 42  1  0  0  0  0
  1 43  1  0  0  0  0
  1 44  1  0  0  0  0
  2  3  1  0  0  0  0
  3  4  1  0  0  0  0
  3 45  1  0  0  0  0
  3 46  1  0  0  0  0
  4  9  1  0  0  0  0
  4  5  2  0  0  0  0
  5  6  1  0  0  0  0
  5 47  1  0  0  0  0
  6 25  1  0  0  0  0
  6  7  2  0  0  0  0
  7  8  1  0  0  0  0
  7 48  1  0  0  0  0
  8  9  2  0  0  0  0
  8 10  1  0  0  0  0
  9 49  1  0  0  0  0
 10 11  1  0  0  0  0
 10 50  1  0  0  0  0
 11 12  1  0  0  0  0
 11 51  1  0  0  0  0
 11 52  1  0  0  0  0
 12 13  1  0  0  0  0
 12 53  1  0  0  0  0
 12 54  1  0  0  0  0
 13 14  1  0  0  0  0
 13 55  1  0  0  0  0
 13 56  1  0  0  0  0
 14 15  1  0  0  0  0
 14 57  1  0  0  0  0
 14 58  1  0  0  0  0
 15 16  1  0  0  0  0
 16 21  1  0  0  0  0
 16 17  2  0  0  0  0
 17 18  1  0  0  0  0
 17 59  1  0  0  0  0
 18 19  2  0  0  0  0
 18 60  1  0  0  0  0
 19 20  1  0  0  0  0
 19 61  1  0  0  0  0
 20 21  2  0  0  0  0
 20 22  1  0  0  0  0
 21 62  1  0  0  0  0
 22 23  1  0  0  0  0
 22 63  1  0  0  0  0
 22 64  1  0  0  0  0
 23 38  1  1  0  0  0
 23 24  1  0  0  0  0
 23 27  1  0  0  0  0
 24 25  1  0  0  0  0
 24 65  1  0  0  0  0
 25 26  2  0  0  0  0
 27 39  1  6  0  0  0
 27 28  1  0  0  0  0
 27 37  1  0  0  0  0
 28 40  1  6  0  0  0
 28 33  1  0  0  0  0
 28 29  1  0  0  0  0
 29 30  1  0  0  0  0
 29 66  1  0  0  0  0
 29 67  1  0  0  0  0
 30 31  1  0  0  0  0
 31 41  1  1  0  0  0
 31 32  1  0  0  0  0
 31 34  1  0  0  0  0
 32 33  1  0  0  0  0
 32 68  1  0  0  0  0
 32 69  1  0  0  0  0
 33 70  1  0  0  0  0
 33 77  1  0  0  0  0
 34 35  1  0  0  0  0
 34 71  1  0  0  0  0
 34 72  1  0  0  0  0
 35 36  1  0  0  0  0
 36 73  1  0  0  0  0
 36 74  1  0  0  0  0
 36 75  1  0  0  0  0
 37 76  1  0  0  0  0
M  CHG  1  33   1
M  END
>  <s_m_source_file>
BACE_13.smi

>  <i_m_source_file_index>
1

>  <i_lp_mmshare_version>
42013

>  <i_f3d_flags>
0

>  <s_epik_input>
W0NIM11PW0NIMl1jKFtjSF1jMTIpW2NIXWMoW2NIXTEpW05IXVtDSDJdW0NIMl1bQ0gyXVtDSDJdT2MzW2NIXVtjSF1bY0hdYyhbY0hdMylbQ0gyXVtDQEhdKFtOSF1DMj1PKVtDQEhdKFtPSF0pW0NASF00W0NIMl1PW0NASF0oW0NIMl1bTkhdNClbQ0gyXU9bQ0gzXQ==

>  <s_epik_cmdline>
J2VwaWtfcHl0aG9uJywgJy1waCcsICc3LjAnLCAnLXRuJywgJzgnLCAnLW1hJywgJzIwMCcsICctaW1hZScsICc8aW5maWxlLm1hZT4nLCAnLW9tYWUnLCAnPG91dGZpbGUubWFlPic=

>  <r_lp_tautomer_probability>
1

>  <r_epik_Ionization_Penalty>
0.1161

>  <r_epik_Ionization_Penalty_Charging>
0.1158

>  <r_epik_Ionization_Penalty_Neutral>
0.0003

>  <r_epik_State_Penalty>
0.1054

>  <r_epik_Charging_Adjusted_Penalty>
0.221149

>  <i_epik_Tot_Q>
1

>  <i_epik_Tot_abs_Q>
1

>  <s_lp_Force_Field>
OPLS_2005

>  <r_lp_Energy>
45.964

>  <b_lp_Chiralities_Consistent>
1

>  <s_lp_Variant>
BACE_13.smi:1-1

>  <chiral flag>
1

>  <version>
0

>  <r_i_glide_lipo>
-0.389877

>  <r_i_glide_hbond>
-0.448198

>  <r_i_glide_metal>
-0

>  <r_i_glide_rewards>
0

>  <r_i_glide_erotb>
0.309821

>  <r_i_glide_esite>
-0.0409344

>  <s_i_glide_gridfile>
second_dock_grid_2

>  <i_i_glide_lignum>
26

>  <i_i_glide_rotatable_bonds>
7

>  <r_i_docking_score>
-5.95104

>  <r_i_glide_ligand_efficiency>
-0.160839

>  <r_i_glide_ligand_efficiency_sa>
-0.535951

>  <r_i_glide_ligand_efficiency_ln>
-1.29064

>  <r_glide_XP_GScore>
-6.05644

>  <r_i_glide_gscore>
-6.05644

>  <r_i_glide_evdw>
-42.358

>  <r_i_glide_ecoul>
-12.1925

>  <r_i_glide_energy>
-54.5505

>  <r_i_glide_einternal>
4.12366

>  <r_i_glide_emodel>
-61.1977

>  <r_glide_XP_HBond>
-1.62337

>  <i_i_glide_confnum>
1

>  <i_i_glide_posenum>
34

>  <r_i_glide_eff_state_penalty>
0.1054

>  <i_glide_XP_PoseRank>
2

>  <chiral flag>
1

$$$$
