BACE_17.smi:1
 OpenBabel10031817133D
Structure written by MMmdl.
 62 64  0  0  1  0  0  0  0  0999 V2000
   19.7910   48.6678   -9.8358 C   0  0  0  0  0  0  0  0  0  0  0  0
   19.8820   47.2097   -9.9362 N   0  0  0  0  0  0  0  0  0  0  0  0
   19.1847   46.4754   -8.8740 C   0  0  0  0  0  0  0  0  0  0  0  0
   20.6542   46.6348  -10.8910 C   0  0  0  0  0  0  0  0  0  0  0  0
   21.3880   47.2861  -11.6347 O   0  0  0  0  0  0  0  0  0  0  0  0
   20.6150   45.1401  -11.0423 C   0  0  0  0  0  0  0  0  0  0  0  0
   21.8236   44.4077  -11.0452 C   0  0  0  0  0  0  0  0  0  0  0  0
   19.3892   44.4640  -11.2449 C   0  0  0  0  0  0  0  0  0  0  0  0
   19.3686   43.0629  -11.3953 C   0  0  0  0  0  0  0  0  0  0  0  0
   20.5798   42.3468  -11.4005 C   0  0  0  0  0  0  0  0  0  0  0  0
   21.8059   43.0053  -11.2191 C   0  0  0  0  0  0  0  0  0  0  0  0
   18.0828   42.3274  -11.5752 C   0  0  0  0  0  0  0  0  0  0  0  0
   17.2599   42.6823  -12.4188 O   0  0  0  0  0  0  0  0  0  0  0  0
   17.9463   41.2840  -10.7457 N   0  0  0  0  0  0  0  0  0  0  0  0
   16.9006   40.2644  -10.7397 C   0  0  2  0  0  0  0  0  0  0  0  0
   15.7020   40.6356   -9.8178 C   0  0  1  0  0  0  0  0  0  0  0  0
   16.1609   41.2591   -8.6309 O   0  0  0  0  0  0  0  0  0  0  0  0
   14.6831   41.5792  -10.4866 C   0  0  0  0  0  0  0  0  0  0  0  0
   14.0600   40.9500  -11.5916 O   0  0  0  0  0  0  0  0  0  0  0  0
   17.5205   38.8844  -10.4065 C   0  0  0  0  0  0  0  0  0  0  0  0
   18.3912   38.8515   -9.1603 C   0  0  0  0  0  0  0  0  0  0  0  0
   19.7796   39.1063   -9.2446 C   0  0  0  0  0  0  0  0  0  0  0  0
   20.5810   39.1048   -8.0757 C   0  0  0  0  0  0  0  0  0  0  0  0
   19.9741   38.8253   -6.8392 C   0  0  0  0  0  0  0  0  0  0  0  0
   18.5975   38.5497   -6.7507 C   0  0  0  0  0  0  0  0  0  0  0  0
   17.8071   38.5582   -7.9116 C   0  0  0  0  0  0  0  0  0  0  0  0
   21.9335   39.3650   -8.0538 O   0  0  0  0  0  0  0  0  0  0  0  0
   22.4957   40.0443   -9.1654 C   0  0  0  0  0  0  0  0  0  0  0  0
   23.8687   40.5972   -8.7538 C   0  0  0  0  0  0  0  0  0  0  0  0
   24.6603   41.2905   -9.8834 C   0  0  0  0  0  0  0  0  0  0  0  0
   24.0166   42.5847  -10.4079 C   0  0  0  0  0  0  0  0  0  0  0  0
   22.9276   42.2181  -11.2391 O   0  0  0  0  0  0  0  0  0  0  0  0
   16.5148   40.1706  -11.7512 H   0  0  0  0  0  0  0  0  0  0  0  0
   15.1768   39.7249   -9.5256 H   0  0  0  0  0  0  0  0  0  0  0  0
   20.6817   49.0672   -9.3496 H   0  0  0  0  0  0  0  0  0  0  0  0
   18.9192   48.9821   -9.2608 H   0  0  0  0  0  0  0  0  0  0  0  0
   19.7059   49.1312  -10.8208 H   0  0  0  0  0  0  0  0  0  0  0  0
   18.1879   46.1804   -9.2026 H   0  0  0  0  0  0  0  0  0  0  0  0
   19.0693   47.0853   -7.9771 H   0  0  0  0  0  0  0  0  0  0  0  0
   19.7273   45.5792   -8.5678 H   0  0  0  0  0  0  0  0  0  0  0  0
   22.7625   44.9289  -10.9247 H   0  0  0  0  0  0  0  0  0  0  0  0
   18.4606   45.0161  -11.2743 H   0  0  0  0  0  0  0  0  0  0  0  0
   20.5794   41.2761  -11.5453 H   0  0  0  0  0  0  0  0  0  0  0  0
   18.6610   41.1622  -10.0426 H   0  0  0  0  0  0  0  0  0  0  0  0
   15.5058   41.1667   -7.9523 H   0  0  0  0  0  0  0  0  0  0  0  0
   13.9040   41.8625   -9.7772 H   0  0  0  0  0  0  0  0  0  0  0  0
   15.1611   42.5017  -10.8138 H   0  0  0  0  0  0  0  0  0  0  0  0
   13.3981   40.3576  -11.2417 H   0  0  0  0  0  0  0  0  0  0  0  0
   16.7377   38.1299  -10.3195 H   0  0  0  0  0  0  0  0  0  0  0  0
   18.1432   38.5619  -11.2401 H   0  0  0  0  0  0  0  0  0  0  0  0
   20.2161   39.3042  -10.2114 H   0  0  0  0  0  0  0  0  0  0  0  0
   20.5777   38.8330   -5.9454 H   0  0  0  0  0  0  0  0  0  0  0  0
   18.1424   38.3349   -5.7942 H   0  0  0  0  0  0  0  0  0  0  0  0
   16.7495   38.3490   -7.8310 H   0  0  0  0  0  0  0  0  0  0  0  0
   22.5850   39.3687  -10.0176 H   0  0  0  0  0  0  0  0  0  0  0  0
   21.8431   40.8692   -9.4419 H   0  0  0  0  0  0  0  0  0  0  0  0
   23.7442   41.2885   -7.9197 H   0  0  0  0  0  0  0  0  0  0  0  0
   24.4601   39.7670   -8.3688 H   0  0  0  0  0  0  0  0  0  0  0  0
   25.6526   41.5321   -9.5028 H   0  0  0  0  0  0  0  0  0  0  0  0
   24.8228   40.5953  -10.7088 H   0  0  0  0  0  0  0  0  0  0  0  0
   23.7178   43.2115   -9.5660 H   0  0  0  0  0  0  0  0  0  0  0  0
   24.7325   43.1506  -11.0043 H   0  0  0  0  0  0  0  0  0  0  0  0
  1  2  1  0  0  0  0
  1 35  1  0  0  0  0
  1 36  1  0  0  0  0
  1 37  1  0  0  0  0
  2  3  1  0  0  0  0
  2  4  1  0  0  0  0
  3 38  1  0  0  0  0
  3 39  1  0  0  0  0
  3 40  1  0  0  0  0
  4  5  2  0  0  0  0
  4  6  1  0  0  0  0
  6  7  1  0  0  0  0
  6  8  2  0  0  0  0
  7 11  2  0  0  0  0
  7 41  1  0  0  0  0
  8  9  1  0  0  0  0
  8 42  1  0  0  0  0
  9 10  2  0  0  0  0
  9 12  1  0  0  0  0
 10 11  1  0  0  0  0
 10 43  1  0  0  0  0
 11 32  1  0  0  0  0
 12 13  2  0  0  0  0
 12 14  1  0  0  0  0
 14 15  1  0  0  0  0
 14 44  1  0  0  0  0
 15 33  1  6  0  0  0
 15 16  1  0  0  0  0
 15 20  1  0  0  0  0
 16 34  1  1  0  0  0
 16 17  1  0  0  0  0
 16 18  1  0  0  0  0
 17 45  1  0  0  0  0
 18 19  1  0  0  0  0
 18 46  1  0  0  0  0
 18 47  1  0  0  0  0
 19 48  1  0  0  0  0
 20 21  1  0  0  0  0
 20 49  1  0  0  0  0
 20 50  1  0  0  0  0
 21 26  1  0  0  0  0
 21 22  2  0  0  0  0
 22 23  1  0  0  0  0
 22 51  1  0  0  0  0
 23 24  2  0  0  0  0
 23 27  1  0  0  0  0
 24 25  1  0  0  0  0
 24 52  1  0  0  0  0
 25 26  2  0  0  0  0
 25 53  1  0  0  0  0
 26 54  1  0  0  0  0
 27 28  1  0  0  0  0
 28 29  1  0  0  0  0
 28 55  1  0  0  0  0
 28 56  1  0  0  0  0
 29 30  1  0  0  0  0
 29 57  1  0  0  0  0
 29 58  1  0  0  0  0
 30 31  1  0  0  0  0
 30 59  1  0  0  0  0
 30 60  1  0  0  0  0
 31 32  1  0  0  0  0
 31 61  1  0  0  0  0
 31 62  1  0  0  0  0
M  END
>  <s_m_source_file>
BACE_17.smi

>  <i_m_source_file_index>
1

>  <i_lp_mmshare_version>
42013

>  <i_f3d_flags>
0

>  <s_epik_input>
W0NIM11OKFtDSDNdKUMoPU8pYyhbY0hdYzEyKVtjSF1jKFtjSF0xKU9bQ0gyXVtDSDJdW0NIMl1bQ0gyXU9jM1tjSF1jKFtjSF1bY0hdW2NIXTMpW0NIMl1bQ0BIXShbTkhdQzI9TylbQ0BASF0oW09IXSlbQ0gyXVtPSF0=

>  <s_epik_cmdline>
J2VwaWtfcHl0aG9uJywgJy1waCcsICc3LjAnLCAnLXRuJywgJzgnLCAnLW1hJywgJzIwMCcsICctaW1hZScsICc8aW5maWxlLm1hZT4nLCAnLW9tYWUnLCAnPG91dGZpbGUubWFlPic=

>  <r_lp_tautomer_probability>
1

>  <r_epik_Ionization_Penalty>
0

>  <r_epik_Ionization_Penalty_Charging>
0

>  <r_epik_Ionization_Penalty_Neutral>
0

>  <r_epik_State_Penalty>
-0

>  <r_epik_Charging_Adjusted_Penalty>
0

>  <i_epik_Tot_Q>
0

>  <i_epik_Tot_abs_Q>
0

>  <s_lp_Force_Field>
OPLS_2005

>  <r_lp_Energy>
47.913

>  <b_lp_Chiralities_Consistent>
1

>  <s_lp_Variant>
BACE_17.smi:1-1

>  <chiral flag>
1

>  <version>
0

>  <r_i_glide_lipo>
-0.567811

>  <r_i_glide_hbond>
0

>  <r_i_glide_metal>
-0

>  <r_i_glide_rewards>
-0.490634

>  <r_i_glide_erotb>
0.306172

>  <r_i_glide_esite>
-0.00811059

>  <s_i_glide_gridfile>
second_dock_grid_2

>  <i_i_glide_lignum>
34

>  <i_i_glide_rotatable_bonds>
6

>  <r_i_docking_score>
0.204126

>  <r_i_glide_ligand_efficiency>
0.00637892

>  <r_i_glide_ligand_efficiency_sa>
0.0202518

>  <r_i_glide_ligand_efficiency_ln>
0.0457093

>  <r_glide_XP_GScore>
0.204126

>  <r_i_glide_gscore>
0.204126

>  <r_i_glide_evdw>
-29.6961

>  <r_i_glide_ecoul>
-15.7374

>  <r_i_glide_energy>
-45.4335

>  <r_i_glide_einternal>
0

>  <r_i_glide_emodel>
-57.2329

>  <r_glide_XP_HBond>
-1.21716

>  <i_i_glide_confnum>
1

>  <i_i_glide_posenum>
15

>  <r_i_glide_eff_state_penalty>
-0

>  <i_glide_XP_PoseRank>
10

>  <chiral flag>
1

$$$$
