BACE_15.smi:1
 OpenBabel10031817133D
Structure written by MMmdl.
 82 85  0  0  1  0  0  0  0  0999 V2000
   26.6777   49.1924   -2.4107 C   0  0  0  0  0  0  0  0  0  0  0  0
   25.4156   49.8283   -1.7954 C   0  0  0  0  0  0  0  0  0  0  0  0
   25.0894   49.2004   -0.4336 C   0  0  0  0  0  0  0  0  0  0  0  0
   24.1996   49.7870   -2.7171 C   0  0  0  0  0  0  0  0  0  0  0  0
   23.1707   50.7489   -2.6158 C   0  0  0  0  0  0  0  0  0  0  0  0
   22.0603   50.6962   -3.4780 C   0  0  0  0  0  0  0  0  0  0  0  0
   21.9582   49.6718   -4.4383 C   0  0  0  0  0  0  0  0  0  0  0  0
   22.9789   48.7067   -4.5612 C   0  0  0  0  0  0  0  0  0  0  0  0
   24.1019   48.7779   -3.6994 C   0  0  0  0  0  0  0  0  0  0  0  0
   22.8355   47.6231   -5.6262 C   0  0  0  0  0  0  0  0  0  0  0  0
   21.7845   47.8868   -6.6078 N   0  0  0  0  0  0  0  0  0  0  0  0
   20.9791   46.7258   -6.9692 C   0  0  0  0  0  0  0  0  0  0  0  0
   20.2241   46.1484   -5.7484 C   0  0  2  0  0  0  0  0  0  0  0  0
   20.3804   44.6111   -5.5825 C   0  0  2  0  0  0  0  0  0  0  0  0
   21.8366   44.0961   -5.7097 C   0  0  0  0  0  0  0  0  0  0  0  0
   21.9729   42.6101   -5.4324 C   0  0  0  0  0  0  0  0  0  0  0  0
   21.7747   42.1231   -4.1251 C   0  0  0  0  0  0  0  0  0  0  0  0
   21.8623   40.7437   -3.8699 C   0  0  0  0  0  0  0  0  0  0  0  0
   22.1376   39.8506   -4.9225 C   0  0  0  0  0  0  0  0  0  0  0  0
   22.3427   40.3207   -6.2365 C   0  0  0  0  0  0  0  0  0  0  0  0
   22.2761   41.7158   -6.4799 C   0  0  0  0  0  0  0  0  0  0  0  0
   22.5811   39.3595   -7.1952 O   0  0  0  0  0  0  0  0  0  0  0  0
   22.8120   39.7285   -8.5508 C   0  0  0  0  0  0  0  0  0  0  0  0
   22.3550   38.5488   -9.4184 C   0  0  0  0  0  0  0  0  0  0  0  0
   20.8203   38.4484   -9.4786 C   0  0  0  0  0  0  0  0  0  0  0  0
   20.2054   39.3194  -10.5864 C   0  0  0  0  0  0  0  0  0  0  0  0
   18.8071   39.4697  -10.3746 O   0  0  0  0  0  0  0  0  0  0  0  0
   18.3421   40.4689   -9.5442 C   0  0  0  0  0  0  0  0  0  0  0  0
   16.9716   40.4355   -9.2366 C   0  0  0  0  0  0  0  0  0  0  0  0
   16.3835   41.3885   -8.3826 C   0  0  0  0  0  0  0  0  0  0  0  0
   17.1821   42.4254   -7.8494 C   0  0  0  0  0  0  0  0  0  0  0  0
   18.5553   42.5025   -8.1776 C   0  0  0  0  0  0  0  0  0  0  0  0
   19.1273   41.5180   -9.0112 C   0  0  0  0  0  0  0  0  0  0  0  0
   19.4187   43.6269   -7.6902 C   0  0  0  0  0  0  0  0  0  0  0  0
   20.1489   44.2370   -8.4724 O   0  0  0  0  0  0  0  0  0  0  0  0
   19.4081   43.8295   -6.3628 N   0  0  0  0  0  0  0  0  0  0  0  0
   14.8939   41.3109   -8.0782 C   0  0  0  0  0  0  0  0  0  0  0  0
   14.4603   40.0092   -7.6968 O   0  0  0  0  0  0  0  0  0  0  0  0
   15.3828   39.2701   -6.9103 C   0  0  0  0  0  0  0  0  0  0  0  0
   18.8665   46.4773   -5.9514 O   0  0  0  0  0  0  0  0  0  0  0  0
   20.5708   46.6445   -4.8409 H   0  0  0  0  0  0  0  0  0  0  0  0
   20.0702   44.3865   -4.5625 H   0  0  0  0  0  0  0  0  0  0  0  0
   26.8940   49.5996   -3.3977 H   0  0  0  0  0  0  0  0  0  0  0  0
   26.5812   48.1114   -2.5136 H   0  0  0  0  0  0  0  0  0  0  0  0
   27.5511   49.3734   -1.7839 H   0  0  0  0  0  0  0  0  0  0  0  0
   25.6461   50.8795   -1.6226 H   0  0  0  0  0  0  0  0  0  0  0  0
   24.2585   49.7134    0.0498 H   0  0  0  0  0  0  0  0  0  0  0  0
   25.9435   49.2525    0.2409 H   0  0  0  0  0  0  0  0  0  0  0  0
   24.8174   48.1497   -0.5391 H   0  0  0  0  0  0  0  0  0  0  0  0
   23.2167   51.5377   -1.8810 H   0  0  0  0  0  0  0  0  0  0  0  0
   21.2822   51.4414   -3.3934 H   0  0  0  0  0  0  0  0  0  0  0  0
   21.0954   49.6359   -5.0885 H   0  0  0  0  0  0  0  0  0  0  0  0
   24.9068   48.0614   -3.7800 H   0  0  0  0  0  0  0  0  0  0  0  0
   23.7957   47.4926   -6.1240 H   0  0  0  0  0  0  0  0  0  0  0  0
   22.6350   46.6828   -5.1131 H   0  0  0  0  0  0  0  0  0  0  0  0
   22.1873   48.2868   -7.4588 H   0  0  0  0  0  0  0  0  0  0  0  0
   20.2575   47.0014   -7.7387 H   0  0  0  0  0  0  0  0  0  0  0  0
   21.6130   45.9583   -7.4144 H   0  0  0  0  0  0  0  0  0  0  0  0
   22.2342   44.3192   -6.6995 H   0  0  0  0  0  0  0  0  0  0  0  0
   22.4802   44.6209   -5.0055 H   0  0  0  0  0  0  0  0  0  0  0  0
   21.5424   42.8020   -3.3165 H   0  0  0  0  0  0  0  0  0  0  0  0
   21.7009   40.3668   -2.8706 H   0  0  0  0  0  0  0  0  0  0  0  0
   22.1868   38.7896   -4.7215 H   0  0  0  0  0  0  0  0  0  0  0  0
   22.4319   42.1274   -7.4650 H   0  0  0  0  0  0  0  0  0  0  0  0
   22.2680   40.6147   -8.8680 H   0  0  0  0  0  0  0  0  0  0  0  0
   23.8757   39.9222   -8.6888 H   0  0  0  0  0  0  0  0  0  0  0  0
   22.7592   38.6426  -10.4260 H   0  0  0  0  0  0  0  0  0  0  0  0
   22.7702   37.6271   -9.0085 H   0  0  0  0  0  0  0  0  0  0  0  0
   20.5239   37.4143   -9.6484 H   0  0  0  0  0  0  0  0  0  0  0  0
   20.4005   38.7170   -8.5088 H   0  0  0  0  0  0  0  0  0  0  0  0
   20.7199   40.2695  -10.7141 H   0  0  0  0  0  0  0  0  0  0  0  0
   20.3322   38.8084  -11.5401 H   0  0  0  0  0  0  0  0  0  0  0  0
   16.3633   39.6591   -9.6735 H   0  0  0  0  0  0  0  0  0  0  0  0
   16.7320   43.1751   -7.2137 H   0  0  0  0  0  0  0  0  0  0  0  0
   20.1793   41.6027   -9.2280 H   0  0  0  0  0  0  0  0  0  0  0  0
   18.7686   43.2599   -5.8281 H   0  0  0  0  0  0  0  0  0  0  0  0
   14.6740   41.9777   -7.2423 H   0  0  0  0  0  0  0  0  0  0  0  0
   14.3154   41.6913   -8.9235 H   0  0  0  0  0  0  0  0  0  0  0  0
   15.0455   38.2367   -6.8404 H   0  0  0  0  0  0  0  0  0  0  0  0
   15.4476   39.6521   -5.8946 H   0  0  0  0  0  0  0  0  0  0  0  0
   16.3812   39.2616   -7.3533 H   0  0  0  0  0  0  0  0  0  0  0  0
   18.5821   46.0504   -6.7528 H   0  0  0  0  0  0  0  0  0  0  0  0
  1  2  1  0  0  0  0
  1 43  1  0  0  0  0
  1 44  1  0  0  0  0
  1 45  1  0  0  0  0
  2  3  1  0  0  0  0
  2  4  1  0  0  0  0
  2 46  1  0  0  0  0
  3 47  1  0  0  0  0
  3 48  1  0  0  0  0
  3 49  1  0  0  0  0
  4  9  1  0  0  0  0
  4  5  2  0  0  0  0
  5  6  1  0  0  0  0
  5 50  1  0  0  0  0
  6  7  2  0  0  0  0
  6 51  1  0  0  0  0
  7  8  1  0  0  0  0
  7 52  1  0  0  0  0
  8  9  2  0  0  0  0
  8 10  1  0  0  0  0
  9 53  1  0  0  0  0
 10 11  1  0  0  0  0
 10 54  1  0  0  0  0
 10 55  1  0  0  0  0
 11 12  1  0  0  0  0
 11 56  1  0  0  0  0
 12 13  1  0  0  0  0
 12 57  1  0  0  0  0
 12 58  1  0  0  0  0
 13 41  1  1  0  0  0
 13 14  1  0  0  0  0
 13 40  1  0  0  0  0
 14 42  1  1  0  0  0
 14 36  1  0  0  0  0
 14 15  1  0  0  0  0
 15 16  1  0  0  0  0
 15 59  1  0  0  0  0
 15 60  1  0  0  0  0
 16 21  1  0  0  0  0
 16 17  2  0  0  0  0
 17 18  1  0  0  0  0
 17 61  1  0  0  0  0
 18 19  2  0  0  0  0
 18 62  1  0  0  0  0
 19 20  1  0  0  0  0
 19 63  1  0  0  0  0
 20 21  2  0  0  0  0
 20 22  1  0  0  0  0
 21 64  1  0  0  0  0
 22 23  1  0  0  0  0
 23 24  1  0  0  0  0
 23 65  1  0  0  0  0
 23 66  1  0  0  0  0
 24 25  1  0  0  0  0
 24 67  1  0  0  0  0
 24 68  1  0  0  0  0
 25 26  1  0  0  0  0
 25 69  1  0  0  0  0
 25 70  1  0  0  0  0
 26 27  1  0  0  0  0
 26 71  1  0  0  0  0
 26 72  1  0  0  0  0
 27 28  1  0  0  0  0
 28 33  1  0  0  0  0
 28 29  2  0  0  0  0
 29 30  1  0  0  0  0
 29 73  1  0  0  0  0
 30 31  2  0  0  0  0
 30 37  1  0  0  0  0
 31 32  1  0  0  0  0
 31 74  1  0  0  0  0
 32 33  2  0  0  0  0
 32 34  1  0  0  0  0
 33 75  1  0  0  0  0
 34 35  2  0  0  0  0
 34 36  1  0  0  0  0
 36 76  1  0  0  0  0
 37 38  1  0  0  0  0
 37 77  1  0  0  0  0
 37 78  1  0  0  0  0
 38 39  1  0  0  0  0
 39 79  1  0  0  0  0
 39 80  1  0  0  0  0
 39 81  1  0  0  0  0
 40 82  1  0  0  0  0
M  END
>  <s_m_source_file>
BACE_15.smi

>  <i_m_source_file_index>
1

>  <i_lp_mmshare_version>
42013

>  <i_f3d_flags>
0

>  <s_epik_input>
W0NIM11bQ0hdKFtDSDNdKWMxW2NIXVtjSF1bY0hdYyhbY0hdMSlbQ0gyXVtOSF1bQ0gyXVtDQEBIXShbT0hdKVtDQEhdKFtDSDJdMilbTkhdQyg9TyljKFtjSF0zKVtjSF1jKFtDSDJdT1tDSDNdKVtjSF1jM09bQ0gyXVtDSDJdW0NIMl1bQ0gyXU9jKFtjSF00KVtjSF1bY0hdW2NIXWMyNA==

>  <s_epik_cmdline>
J2VwaWtfcHl0aG9uJywgJy1waCcsICc3LjAnLCAnLXRuJywgJzgnLCAnLW1hJywgJzIwMCcsICctaW1hZScsICc8aW5maWxlLm1hZT4nLCAnLW9tYWUnLCAnPG91dGZpbGUubWFlPic=

>  <r_lp_tautomer_probability>
1

>  <r_epik_Ionization_Penalty>
2.0439

>  <r_epik_Ionization_Penalty_Charging>
0

>  <r_epik_Ionization_Penalty_Neutral>
2.0439

>  <r_epik_State_Penalty>
2.1759

>  <r_epik_Charging_Adjusted_Penalty>
2.17586

>  <i_epik_Tot_Q>
0

>  <i_epik_Tot_abs_Q>
0

>  <s_lp_Force_Field>
OPLS_2005

>  <r_lp_Energy>
41.685

>  <b_lp_Chiralities_Consistent>
1

>  <s_lp_Variant>
BACE_15.smi:1-2

>  <chiral flag>
1

>  <version>
0

>  <r_i_glide_lipo>
-1.28438

>  <r_i_glide_hbond>
-0.32

>  <r_i_glide_metal>
-0

>  <r_i_glide_rewards>
0

>  <r_i_glide_erotb>
0.415786

>  <r_i_glide_esite>
-0.00194306

>  <s_i_glide_gridfile>
second_dock_grid_2

>  <i_i_glide_lignum>
31

>  <i_i_glide_rotatable_bonds>
9

>  <r_i_docking_score>
-2.32817

>  <r_i_glide_ligand_efficiency>
-0.0582042

>  <r_i_glide_ligand_efficiency_sa>
-0.199056

>  <r_i_glide_ligand_efficiency_ln>
-0.49653

>  <r_glide_XP_GScore>
-4.50407

>  <r_i_glide_gscore>
-4.50407

>  <r_i_glide_evdw>
-42.2061

>  <r_i_glide_ecoul>
-5.2177

>  <r_i_glide_energy>
-47.4238

>  <r_i_glide_einternal>
2.84608

>  <r_i_glide_emodel>
-72.3757

>  <r_glide_XP_HBond>
-0.701921

>  <i_i_glide_confnum>
1

>  <i_i_glide_posenum>
2

>  <r_i_glide_eff_state_penalty>
2.1759

>  <i_glide_XP_PoseRank>
1

>  <chiral flag>
1

$$$$
