BACE_2.smi:1
 OpenBabel10031817133D
Structure written by MMmdl.
 96 98  0  0  1  0  0  0  0  0999 V2000
   20.4180   40.5382   -6.8326 C   0  0  0  0  0  0  0  0  0  0  0  0
   21.0711   41.2835   -5.8403 C   0  0  0  0  0  0  0  0  0  0  0  0
   22.2351   42.0150   -6.1540 C   0  0  0  0  0  0  0  0  0  0  0  0
   22.9652   42.8030   -5.0715 C   0  0  0  0  0  0  0  0  0  0  0  0
   22.3016   44.1654   -4.8415 C   0  0  0  0  0  0  0  0  0  0  0  0
   23.0919   42.0137   -3.7570 C   0  0  0  0  0  0  0  0  0  0  0  0
   22.7190   42.0132   -7.4825 C   0  0  0  0  0  0  0  0  0  0  0  0
   22.0618   41.2654   -8.4896 C   0  0  0  0  0  0  0  0  0  0  0  0
   20.8959   40.5284   -8.1531 C   0  0  0  0  0  0  0  0  0  0  0  0
   22.5605   41.2603   -9.9346 C   0  0  2  0  0  0  0  0  0  0  0  0
   21.9681   40.0636  -10.6950 C   0  0  0  0  0  0  0  0  0  0  0  0
   20.4509   39.9222  -10.4461 C   0  0  0  0  0  0  0  0  0  0  0  0
   20.1920   39.7682   -9.0568 O   0  0  0  0  0  0  0  0  0  0  0  0
   19.6364   41.1162  -10.9850 C   0  0  0  0  0  0  0  0  0  0  0  0
   19.9189   38.6203  -11.0609 C   0  0  0  0  0  0  0  0  0  0  0  0
   24.0418   41.2723  -10.0399 N   0  3  0  0  0  0  0  0  0  0  0  0
   24.6113   42.5804  -10.4452 C   0  0  0  0  0  0  0  0  0  0  0  0
   26.1481   42.6109  -10.3411 C   0  0  1  0  0  0  0  0  0  0  0  0
   26.6751   41.7059  -11.2876 O   0  0  0  0  0  0  0  0  0  0  0  0
   26.7556   44.0263  -10.5514 C   0  0  1  0  0  0  0  0  0  0  0  0
   28.1957   43.9978  -10.2812 N   0  0  0  0  0  0  0  0  0  0  0  0
   28.7551   44.1108   -9.0664 C   0  0  0  0  0  0  0  0  0  0  0  0
   28.0639   44.3221   -8.0687 O   0  0  0  0  0  0  0  0  0  0  0  0
   30.2865   43.8945   -8.9106 C   0  0  2  0  0  0  0  0  0  0  0  0
   30.8274   44.9236   -7.8864 C   0  0  0  0  0  0  0  0  0  0  0  0
   26.4751   44.6519  -11.9388 C   0  0  0  0  0  0  0  0  0  0  0  0
   27.0174   46.0935  -12.1471 C   0  0  2  0  0  0  0  0  0  0  0  0
   26.4591   47.0802  -11.1036 C   0  0  0  0  0  0  0  0  0  0  0  0
   26.7021   46.6184  -13.5686 C   0  0  0  0  0  0  0  0  0  0  0  0
   27.5370   45.9770  -14.6912 C   0  0  0  0  0  0  0  0  0  0  0  0
   28.9670   46.5330  -14.7863 C   0  0  0  0  0  0  0  0  0  0  0  0
   29.8888   45.7413  -15.7354 C   0  0  0  0  0  0  0  0  0  0  0  0
   30.1715   44.2855  -15.3154 C   0  0  0  0  0  0  0  0  0  0  0  0
   30.8116   44.1819  -13.9245 C   0  0  0  0  0  0  0  0  0  0  0  0
   31.2705   42.7657  -13.5476 C   0  0  0  0  0  0  0  0  0  0  0  0
   32.0188   42.7138  -12.2002 C   0  0  0  0  0  0  0  0  0  0  0  0
   31.0924   42.7858  -10.9742 C   0  0  0  0  0  0  0  0  0  0  0  0
   30.4538   41.7671  -10.6983 O   0  0  0  0  0  0  0  0  0  0  0  0
   31.0360   43.9086  -10.2017 N   0  0  0  0  0  0  0  0  0  0  0  0
   31.7331   45.1445  -10.5901 C   0  0  0  0  0  0  0  0  0  0  0  0
   22.1750   42.1698  -10.3978 H   0  0  0  0  0  0  0  0  0  0  0  0
   26.4221   42.2594   -9.3498 H   0  0  0  0  0  0  0  0  0  0  0  0
   26.2789   44.6672   -9.8108 H   0  0  0  0  0  0  0  0  0  0  0  0
   30.4586   42.9231   -8.4411 H   0  0  0  0  0  0  0  0  0  0  0  0
   28.1002   46.0776  -12.0209 H   0  0  0  0  0  0  0  0  0  0  0  0
   19.5275   39.9808   -6.5785 H   0  0  0  0  0  0  0  0  0  0  0  0
   20.6573   41.2871   -4.8443 H   0  0  0  0  0  0  0  0  0  0  0  0
   23.9804   42.9900   -5.4239 H   0  0  0  0  0  0  0  0  0  0  0  0
   22.2661   44.7465   -5.7636 H   0  0  0  0  0  0  0  0  0  0  0  0
   22.8591   44.7491   -4.1078 H   0  0  0  0  0  0  0  0  0  0  0  0
   21.2804   44.0524   -4.4742 H   0  0  0  0  0  0  0  0  0  0  0  0
   23.6049   41.0633   -3.9185 H   0  0  0  0  0  0  0  0  0  0  0  0
   22.1276   41.7999   -3.2988 H   0  0  0  0  0  0  0  0  0  0  0  0
   23.6598   42.5783   -3.0197 H   0  0  0  0  0  0  0  0  0  0  0  0
   23.5985   42.5938   -7.7125 H   0  0  0  0  0  0  0  0  0  0  0  0
   22.1685   40.1529  -11.7615 H   0  0  0  0  0  0  0  0  0  0  0  0
   22.4605   39.1507  -10.3616 H   0  0  0  0  0  0  0  0  0  0  0  0
   19.8112   41.2615  -12.0508 H   0  0  0  0  0  0  0  0  0  0  0  0
   19.8831   42.0484  -10.4743 H   0  0  0  0  0  0  0  0  0  0  0  0
   18.5682   40.9568  -10.8463 H   0  0  0  0  0  0  0  0  0  0  0  0
   20.1203   38.5801  -12.1279 H   0  0  0  0  0  0  0  0  0  0  0  0
   18.8413   38.5270  -10.9213 H   0  0  0  0  0  0  0  0  0  0  0  0
   20.3748   37.7502  -10.5849 H   0  0  0  0  0  0  0  0  0  0  0  0
   24.4293   40.9813   -9.1540 H   0  0  0  0  0  0  0  0  0  0  0  0
   24.2884   42.7896  -11.4659 H   0  0  0  0  0  0  0  0  0  0  0  0
   24.1911   43.3616   -9.8126 H   0  0  0  0  0  0  0  0  0  0  0  0
   27.5824   41.5202  -11.0727 H   0  0  0  0  0  0  0  0  0  0  0  0
   28.8036   43.8102  -11.0635 H   0  0  0  0  0  0  0  0  0  0  0  0
   30.4409   44.7137   -6.8890 H   0  0  0  0  0  0  0  0  0  0  0  0
   30.5447   45.9510   -8.1199 H   0  0  0  0  0  0  0  0  0  0  0  0
   31.9154   44.8757   -7.8083 H   0  0  0  0  0  0  0  0  0  0  0  0
   26.8908   43.9879  -12.6975 H   0  0  0  0  0  0  0  0  0  0  0  0
   25.4022   44.6677  -12.1191 H   0  0  0  0  0  0  0  0  0  0  0  0
   26.8062   48.0951  -11.2998 H   0  0  0  0  0  0  0  0  0  0  0  0
   26.7880   46.8329  -10.0949 H   0  0  0  0  0  0  0  0  0  0  0  0
   25.3686   47.0956  -11.1126 H   0  0  0  0  0  0  0  0  0  0  0  0
   25.6426   46.4594  -13.7738 H   0  0  0  0  0  0  0  0  0  0  0  0
   26.8469   47.6991  -13.6117 H   0  0  0  0  0  0  0  0  0  0  0  0
   27.0336   46.1530  -15.6408 H   0  0  0  0  0  0  0  0  0  0  0  0
   27.5500   44.8998  -14.5640 H   0  0  0  0  0  0  0  0  0  0  0  0
   28.9166   47.5671  -15.1302 H   0  0  0  0  0  0  0  0  0  0  0  0
   29.4227   46.5884  -13.7993 H   0  0  0  0  0  0  0  0  0  0  0  0
   30.8394   46.2695  -15.8063 H   0  0  0  0  0  0  0  0  0  0  0  0
   29.4757   45.7511  -16.7438 H   0  0  0  0  0  0  0  0  0  0  0  0
   29.2646   43.6833  -15.3492 H   0  0  0  0  0  0  0  0  0  0  0  0
   30.8425   43.8417  -16.0524 H   0  0  0  0  0  0  0  0  0  0  0  0
   30.1063   44.5350  -13.1718 H   0  0  0  0  0  0  0  0  0  0  0  0
   31.6728   44.8504  -13.8946 H   0  0  0  0  0  0  0  0  0  0  0  0
   30.4122   42.0875  -13.5303 H   0  0  0  0  0  0  0  0  0  0  0  0
   31.9320   42.3835  -14.3282 H   0  0  0  0  0  0  0  0  0  0  0  0
   32.8284   43.4419  -12.1698 H   0  0  0  0  0  0  0  0  0  0  0  0
   32.5222   41.7491  -12.1482 H   0  0  0  0  0  0  0  0  0  0  0  0
   31.3071   46.0415  -10.1398 H   0  0  0  0  0  0  0  0  0  0  0  0
   31.6827   45.3354  -11.6604 H   0  0  0  0  0  0  0  0  0  0  0  0
   32.7876   45.0912  -10.3061 H   0  0  0  0  0  0  0  0  0  0  0  0
   24.3303   40.6004  -10.7375 H   0  0  0  0  0  0  0  0  0  0  0  0
  1  9  1  0  0  0  0
  1  2  2  0  0  0  0
  1 46  1  0  0  0  0
  2  3  1  0  0  0  0
  2 47  1  0  0  0  0
  3  4  1  0  0  0  0
  3  7  2  0  0  0  0
  4  5  1  0  0  0  0
  4  6  1  0  0  0  0
  4 48  1  0  0  0  0
  5 49  1  0  0  0  0
  5 50  1  0  0  0  0
  5 51  1  0  0  0  0
  6 52  1  0  0  0  0
  6 53  1  0  0  0  0
  6 54  1  0  0  0  0
  7  8  1  0  0  0  0
  7 55  1  0  0  0  0
  8  9  2  0  0  0  0
  8 10  1  0  0  0  0
  9 13  1  0  0  0  0
 10 41  1  6  0  0  0
 10 11  1  0  0  0  0
 10 16  1  0  0  0  0
 11 12  1  0  0  0  0
 11 56  1  0  0  0  0
 11 57  1  0  0  0  0
 12 13  1  0  0  0  0
 12 14  1  0  0  0  0
 12 15  1  0  0  0  0
 14 58  1  0  0  0  0
 14 59  1  0  0  0  0
 14 60  1  0  0  0  0
 15 61  1  0  0  0  0
 15 62  1  0  0  0  0
 15 63  1  0  0  0  0
 16 17  1  0  0  0  0
 16 64  1  0  0  0  0
 16 96  1  0  0  0  0
 17 18  1  0  0  0  0
 17 65  1  0  0  0  0
 17 66  1  0  0  0  0
 18 42  1  1  0  0  0
 18 19  1  0  0  0  0
 18 20  1  0  0  0  0
 19 67  1  0  0  0  0
 20 43  1  1  0  0  0
 20 21  1  0  0  0  0
 20 26  1  0  0  0  0
 21 22  1  0  0  0  0
 21 68  1  0  0  0  0
 22 23  2  0  0  0  0
 22 24  1  0  0  0  0
 24 44  1  1  0  0  0
 24 39  1  0  0  0  0
 24 25  1  0  0  0  0
 25 69  1  0  0  0  0
 25 70  1  0  0  0  0
 25 71  1  0  0  0  0
 26 27  1  0  0  0  0
 26 72  1  0  0  0  0
 26 73  1  0  0  0  0
 27 45  1  1  0  0  0
 27 28  1  0  0  0  0
 27 29  1  0  0  0  0
 28 74  1  0  0  0  0
 28 75  1  0  0  0  0
 28 76  1  0  0  0  0
 29 30  1  0  0  0  0
 29 77  1  0  0  0  0
 29 78  1  0  0  0  0
 30 31  1  0  0  0  0
 30 79  1  0  0  0  0
 30 80  1  0  0  0  0
 31 32  1  0  0  0  0
 31 81  1  0  0  0  0
 31 82  1  0  0  0  0
 32 33  1  0  0  0  0
 32 83  1  0  0  0  0
 32 84  1  0  0  0  0
 33 34  1  0  0  0  0
 33 85  1  0  0  0  0
 33 86  1  0  0  0  0
 34 35  1  0  0  0  0
 34 87  1  0  0  0  0
 34 88  1  0  0  0  0
 35 36  1  0  0  0  0
 35 89  1  0  0  0  0
 35 90  1  0  0  0  0
 36 37  1  0  0  0  0
 36 91  1  0  0  0  0
 36 92  1  0  0  0  0
 37 38  2  0  0  0  0
 37 39  1  0  0  0  0
 39 40  1  0  0  0  0
 40 93  1  0  0  0  0
 40 94  1  0  0  0  0
 40 95  1  0  0  0  0
M  CHG  1  16   1
M  END
>  <s_m_source_file>
BACE_2.smi

>  <i_m_source_file_index>
1

>  <i_lp_mmshare_version>
42013

>  <i_f3d_flags>
0

>  <s_epik_input>
W0NIM11bQ0hdKFtDSDNdKWMoW2NIXTEpW2NIXVtjSF1jKGMxMilPQyhbQ0gzXSkoW0NIM10pW0NIMl1bQ0BASF0yW05IXVtDSDJdW0NAQEhdKFtPSF0pW0NASF0zW05IXUMoPU8pW0NASF0oW0NIM10pTihbQ0gzXSlDKD1PKVtDSDJdW0NIMl1bQ0gyXVtDSDJdW0NIMl1bQ0gyXVtDSDJdW0NIMl1bQ0BIXShbQ0gyXTMpW0NIM10=

>  <s_epik_cmdline>
J2VwaWtfcHl0aG9uJywgJy1waCcsICc3LjAnLCAnLXRuJywgJzgnLCAnLW1hJywgJzIwMCcsICctaW1hZScsICc8aW5maWxlLm1hZT4nLCAnLW9tYWUnLCAnPG91dGZpbGUubWFlPic=

>  <r_lp_tautomer_probability>
1

>  <r_epik_Ionization_Penalty>
0.0187

>  <r_epik_Ionization_Penalty_Charging>
0.0187

>  <r_epik_Ionization_Penalty_Neutral>
0

>  <r_epik_State_Penalty>
0.0149

>  <r_epik_Charging_Adjusted_Penalty>
0.0336543

>  <i_epik_Tot_Q>
1

>  <i_epik_Tot_abs_Q>
1

>  <s_lp_Force_Field>
OPLS_2005

>  <r_lp_Energy>
39.6981

>  <b_lp_Chiralities_Consistent>
1

>  <s_lp_Variant>
BACE_2.smi:1-1

>  <chiral flag>
1

>  <version>
0

>  <r_i_glide_lipo>
-1.16718

>  <r_i_glide_hbond>
-0.864

>  <r_i_glide_metal>
-0

>  <r_i_glide_rewards>
-0.0224461

>  <r_i_glide_erotb>
0.187911

>  <r_i_glide_esite>
-0.0353584

>  <s_i_glide_gridfile>
second_dock_grid_2

>  <i_i_glide_lignum>
2

>  <i_i_glide_rotatable_bonds>
6

>  <r_i_docking_score>
-3.81282

>  <r_i_glide_ligand_efficiency>
-0.0953204

>  <r_i_glide_ligand_efficiency_sa>
-0.325991

>  <r_i_glide_ligand_efficiency_ln>
-0.813162

>  <r_glide_XP_GScore>
-3.82772

>  <r_i_glide_gscore>
-3.82772

>  <r_i_glide_evdw>
-32.8109

>  <r_i_glide_ecoul>
-5.47749

>  <r_i_glide_energy>
-38.2884

>  <r_i_glide_einternal>
3.41076

>  <r_i_glide_emodel>
-54.9013

>  <r_glide_XP_HBond>
-0.7

>  <i_i_glide_confnum>
1

>  <i_i_glide_posenum>
14

>  <r_i_glide_eff_state_penalty>
0.0149

>  <i_glide_XP_PoseRank>
2

>  <chiral flag>
1

$$$$
