BACE_16.smi:1
 OpenBabel10031817133D
Structure written by MMmdl.
 84 87  0  0  1  0  0  0  0  0999 V2000
   22.5729   42.9816   -3.3355 C   0  0  0  0  0  0  0  0  0  0  0  0
   21.1592   42.5409   -3.7418 C   0  0  0  0  0  0  0  0  0  0  0  0
   20.6940   41.3129   -2.9411 C   0  0  0  0  0  0  0  0  0  0  0  0
   21.0464   42.2983   -5.2426 C   0  0  0  0  0  0  0  0  0  0  0  0
   20.0741   42.9885   -5.9976 C   0  0  0  0  0  0  0  0  0  0  0  0
   19.9183   42.7207   -7.3711 C   0  0  0  0  0  0  0  0  0  0  0  0
   20.7441   41.7723   -8.0013 C   0  0  0  0  0  0  0  0  0  0  0  0
   21.7530   41.1059   -7.2680 C   0  0  0  0  0  0  0  0  0  0  0  0
   21.8871   41.3638   -5.8869 C   0  0  0  0  0  0  0  0  0  0  0  0
   22.6811   40.0913   -7.9206 C   0  0  0  0  0  0  0  0  0  0  0  0
   22.8598   40.2199   -9.3725 N   0  0  0  0  0  0  0  0  0  0  0  0
   23.3948   41.4969   -9.8799 C   0  0  0  0  0  0  0  0  0  0  0  0
   24.8101   41.8254   -9.3662 C   0  0  2  0  0  0  0  0  0  0  0  0
   25.2173   43.3090   -9.6171 C   0  0  2  0  0  0  0  0  0  0  0  0
   26.1058   43.5840  -10.8679 C   0  0  0  0  0  0  0  0  0  0  0  0
   27.6128   43.4492  -10.6487 C   0  0  0  0  0  0  0  0  0  0  0  0
   28.2907   42.2820  -11.0583 C   0  0  0  0  0  0  0  0  0  0  0  0
   29.6720   42.1503  -10.8367 C   0  0  0  0  0  0  0  0  0  0  0  0
   30.3895   43.1825  -10.1988 C   0  0  0  0  0  0  0  0  0  0  0  0
   29.7332   44.3789   -9.8105 C   0  0  0  0  0  0  0  0  0  0  0  0
   28.3498   44.4988  -10.0580 C   0  0  0  0  0  0  0  0  0  0  0  0
   30.3546   45.4630   -9.2244 O   0  0  0  0  0  0  0  0  0  0  0  0
   31.6076   45.2947   -8.5677 C   0  0  0  0  0  0  0  0  0  0  0  0
   31.4005   44.8009   -7.1266 C   0  0  0  0  0  0  0  0  0  0  0  0
   30.8656   45.9154   -6.2066 C   0  0  0  0  0  0  0  0  0  0  0  0
   30.5053   45.4223   -4.7960 C   0  0  0  0  0  0  0  0  0  0  0  0
   29.3791   44.5506   -4.8473 O   0  0  0  0  0  0  0  0  0  0  0  0
   28.1502   45.1271   -5.0818 C   0  0  0  0  0  0  0  0  0  0  0  0
   27.3082   44.5063   -6.0220 C   0  0  0  0  0  0  0  0  0  0  0  0
   26.0403   45.0421   -6.3299 C   0  0  0  0  0  0  0  0  0  0  0  0
   25.5936   46.1911   -5.6451 C   0  0  0  0  0  0  0  0  0  0  0  0
   26.4208   46.8285   -4.6870 C   0  0  0  0  0  0  0  0  0  0  0  0
   27.6959   46.2898   -4.4174 C   0  0  0  0  0  0  0  0  0  0  0  0
   26.0523   47.9543   -3.9835 O   0  0  0  0  0  0  0  0  0  0  0  0
   24.7976   48.5472   -4.2988 C   0  0  0  0  0  0  0  0  0  0  0  0
   24.5957   49.8390   -3.5039 C   0  0  0  0  0  0  0  0  0  0  0  0
   23.6078   50.5484   -3.6992 O   0  0  0  0  0  0  0  0  0  0  0  0
   25.6453   50.2358   -2.4704 C   0  0  0  0  0  0  0  0  0  0  0  0
   25.1654   44.3916   -7.3605 C   0  0  0  0  0  0  0  0  0  0  0  0
   23.9387   44.4118   -7.2615 O   0  0  0  0  0  0  0  0  0  0  0  0
   25.8179   43.8833   -8.4167 N   0  0  0  0  0  0  0  0  0  0  0  0
   25.6836   40.9499  -10.0395 O   0  0  0  0  0  0  0  0  0  0  0  0
   24.8597   41.6213   -8.2992 H   0  0  0  0  0  0  0  0  0  0  0  0
   24.2943   43.8622   -9.7944 H   0  0  0  0  0  0  0  0  0  0  0  0
   22.8702   43.8783   -3.8798 H   0  0  0  0  0  0  0  0  0  0  0  0
   23.3185   42.2112   -3.5352 H   0  0  0  0  0  0  0  0  0  0  0  0
   22.6191   43.2147   -2.2715 H   0  0  0  0  0  0  0  0  0  0  0  0
   20.4842   43.3586   -3.4876 H   0  0  0  0  0  0  0  0  0  0  0  0
   19.6664   41.0484   -3.1945 H   0  0  0  0  0  0  0  0  0  0  0  0
   20.7230   41.5054   -1.8693 H   0  0  0  0  0  0  0  0  0  0  0  0
   21.3204   40.4413   -3.1394 H   0  0  0  0  0  0  0  0  0  0  0  0
   19.4153   43.6978   -5.5213 H   0  0  0  0  0  0  0  0  0  0  0  0
   19.1572   43.2318   -7.9419 H   0  0  0  0  0  0  0  0  0  0  0  0
   20.6096   41.5672   -9.0535 H   0  0  0  0  0  0  0  0  0  0  0  0
   22.6326   40.8320   -5.3142 H   0  0  0  0  0  0  0  0  0  0  0  0
   23.6442   40.1067   -7.4133 H   0  0  0  0  0  0  0  0  0  0  0  0
   22.2662   39.1048   -7.7116 H   0  0  0  0  0  0  0  0  0  0  0  0
   23.4602   39.4548   -9.6753 H   0  0  0  0  0  0  0  0  0  0  0  0
   23.3925   41.4884  -10.9714 H   0  0  0  0  0  0  0  0  0  0  0  0
   22.7205   42.3065   -9.6014 H   0  0  0  0  0  0  0  0  0  0  0  0
   25.7931   42.9621  -11.7077 H   0  0  0  0  0  0  0  0  0  0  0  0
   25.9293   44.6087  -11.1956 H   0  0  0  0  0  0  0  0  0  0  0  0
   27.7521   41.4753  -11.5325 H   0  0  0  0  0  0  0  0  0  0  0  0
   30.1794   41.2501  -11.1552 H   0  0  0  0  0  0  0  0  0  0  0  0
   31.4484   43.0341  -10.0553 H   0  0  0  0  0  0  0  0  0  0  0  0
   27.8469   45.4110   -9.7710 H   0  0  0  0  0  0  0  0  0  0  0  0
   32.2985   44.6545   -9.1113 H   0  0  0  0  0  0  0  0  0  0  0  0
   32.0995   46.2663   -8.5431 H   0  0  0  0  0  0  0  0  0  0  0  0
   30.7300   43.9411   -7.1232 H   0  0  0  0  0  0  0  0  0  0  0  0
   32.3505   44.4426   -6.7265 H   0  0  0  0  0  0  0  0  0  0  0  0
   31.6251   46.6928   -6.1201 H   0  0  0  0  0  0  0  0  0  0  0  0
   30.0025   46.3959   -6.6649 H   0  0  0  0  0  0  0  0  0  0  0  0
   31.3434   44.8674   -4.3762 H   0  0  0  0  0  0  0  0  0  0  0  0
   30.3537   46.2639   -4.1222 H   0  0  0  0  0  0  0  0  0  0  0  0
   27.6599   43.6160   -6.5222 H   0  0  0  0  0  0  0  0  0  0  0  0
   24.6110   46.5708   -5.8802 H   0  0  0  0  0  0  0  0  0  0  0  0
   28.3074   46.7702   -3.6713 H   0  0  0  0  0  0  0  0  0  0  0  0
   24.7480   48.7853   -5.3611 H   0  0  0  0  0  0  0  0  0  0  0  0
   23.9871   47.8558   -4.0645 H   0  0  0  0  0  0  0  0  0  0  0  0
   26.5828   50.4897   -2.9656 H   0  0  0  0  0  0  0  0  0  0  0  0
   25.8299   49.4137   -1.7780 H   0  0  0  0  0  0  0  0  0  0  0  0
   25.3102   51.1021   -1.8999 H   0  0  0  0  0  0  0  0  0  0  0  0
   26.8265   43.9314   -8.4087 H   0  0  0  0  0  0  0  0  0  0  0  0
   25.3838   40.0560   -9.9216 H   0  0  0  0  0  0  0  0  0  0  0  0
  1  2  1  0  0  0  0
  1 45  1  0  0  0  0
  1 46  1  0  0  0  0
  1 47  1  0  0  0  0
  2  3  1  0  0  0  0
  2  4  1  0  0  0  0
  2 48  1  0  0  0  0
  3 49  1  0  0  0  0
  3 50  1  0  0  0  0
  3 51  1  0  0  0  0
  4  9  1  0  0  0  0
  4  5  2  0  0  0  0
  5  6  1  0  0  0  0
  5 52  1  0  0  0  0
  6  7  2  0  0  0  0
  6 53  1  0  0  0  0
  7  8  1  0  0  0  0
  7 54  1  0  0  0  0
  8  9  2  0  0  0  0
  8 10  1  0  0  0  0
  9 55  1  0  0  0  0
 10 11  1  0  0  0  0
 10 56  1  0  0  0  0
 10 57  1  0  0  0  0
 11 12  1  0  0  0  0
 11 58  1  0  0  0  0
 12 13  1  0  0  0  0
 12 59  1  0  0  0  0
 12 60  1  0  0  0  0
 13 43  1  1  0  0  0
 13 14  1  0  0  0  0
 13 42  1  0  0  0  0
 14 44  1  6  0  0  0
 14 41  1  0  0  0  0
 14 15  1  0  0  0  0
 15 16  1  0  0  0  0
 15 61  1  0  0  0  0
 15 62  1  0  0  0  0
 16 21  1  0  0  0  0
 16 17  2  0  0  0  0
 17 18  1  0  0  0  0
 17 63  1  0  0  0  0
 18 19  2  0  0  0  0
 18 64  1  0  0  0  0
 19 20  1  0  0  0  0
 19 65  1  0  0  0  0
 20 21  2  0  0  0  0
 20 22  1  0  0  0  0
 21 66  1  0  0  0  0
 22 23  1  0  0  0  0
 23 24  1  0  0  0  0
 23 67  1  0  0  0  0
 23 68  1  0  0  0  0
 24 25  1  0  0  0  0
 24 69  1  0  0  0  0
 24 70  1  0  0  0  0
 25 26  1  0  0  0  0
 25 71  1  0  0  0  0
 25 72  1  0  0  0  0
 26 27  1  0  0  0  0
 26 73  1  0  0  0  0
 26 74  1  0  0  0  0
 27 28  1  0  0  0  0
 28 33  1  0  0  0  0
 28 29  2  0  0  0  0
 29 30  1  0  0  0  0
 29 75  1  0  0  0  0
 30 31  2  0  0  0  0
 30 39  1  0  0  0  0
 31 32  1  0  0  0  0
 31 76  1  0  0  0  0
 32 33  2  0  0  0  0
 32 34  1  0  0  0  0
 33 77  1  0  0  0  0
 34 35  1  0  0  0  0
 35 36  1  0  0  0  0
 35 78  1  0  0  0  0
 35 79  1  0  0  0  0
 36 37  2  0  0  0  0
 36 38  1  0  0  0  0
 38 80  1  0  0  0  0
 38 81  1  0  0  0  0
 38 82  1  0  0  0  0
 39 40  2  0  0  0  0
 39 41  1  0  0  0  0
 41 83  1  0  0  0  0
 42 84  1  0  0  0  0
M  END
>  <s_m_source_file>
BACE_16.smi

>  <i_m_source_file_index>
1

>  <i_lp_mmshare_version>
42013

>  <i_f3d_flags>
0

>  <s_epik_input>
W0NIM11bQ0hdKFtDSDNdKWMxW2NIXVtjSF1bY0hdYyhbY0hdMSlbQ0gyXVtOSF1bQ0gyXVtDQEBIXShbT0hdKVtDQEhdKFtDSDJdMilbTkhdQyg9TyljKFtjSF1jKFtjSF0zKU9bQ0gyXUMoPU8pW0NIM10pW2NIXWMzT1tDSDJdW0NIMl1bQ0gyXVtDSDJdT2MoW2NIXTQpW2NIXVtjSF1bY0hdYzI0

>  <s_epik_cmdline>
J2VwaWtfcHl0aG9uJywgJy1waCcsICc3LjAnLCAnLXRuJywgJzgnLCAnLW1hJywgJzIwMCcsICctaW1hZScsICc8aW5maWxlLm1hZT4nLCAnLW9tYWUnLCAnPG91dGZpbGUubWFlPic=

>  <r_lp_tautomer_probability>
1

>  <r_epik_Ionization_Penalty>
2.0439

>  <r_epik_Ionization_Penalty_Charging>
0

>  <r_epik_Ionization_Penalty_Neutral>
2.0439

>  <r_epik_State_Penalty>
2.1759

>  <r_epik_Charging_Adjusted_Penalty>
2.17586

>  <i_epik_Tot_Q>
0

>  <i_epik_Tot_abs_Q>
0

>  <s_lp_Force_Field>
OPLS_2005

>  <r_lp_Energy>
40.5038

>  <b_lp_Chiralities_Consistent>
1

>  <s_lp_Variant>
BACE_16.smi:1-2

>  <chiral flag>
1

>  <version>
0

>  <r_i_glide_lipo>
-0.812693

>  <r_i_glide_hbond>
-0.49738

>  <r_i_glide_metal>
-0

>  <r_i_glide_rewards>
0

>  <r_i_glide_erotb>
0.34788

>  <r_i_glide_esite>
-0.101943

>  <s_i_glide_gridfile>
second_dock_grid_2

>  <i_i_glide_lignum>
33

>  <i_i_glide_rotatable_bonds>
10

>  <r_i_docking_score>
-2.39918

>  <r_i_glide_ligand_efficiency>
-0.0571234

>  <r_i_glide_ligand_efficiency_sa>
-0.198563

>  <r_i_glide_ligand_efficiency_ln>
-0.506406

>  <r_glide_XP_GScore>
-4.57508

>  <r_i_glide_gscore>
-4.57508

>  <r_i_glide_evdw>
-43.0391

>  <r_i_glide_ecoul>
-6.05758

>  <r_i_glide_energy>
-49.0967

>  <r_i_glide_einternal>
7.67262

>  <r_i_glide_emodel>
-68.6793

>  <r_glide_XP_HBond>
-1.15218

>  <i_i_glide_confnum>
1

>  <i_i_glide_posenum>
1

>  <r_i_glide_eff_state_penalty>
2.1759

>  <i_glide_XP_PoseRank>
3

>  <chiral flag>
1

$$$$
