BACE_9.smi:1
 OpenBabel10031817133D
Structure written by MMmdl.
 87 89  0  0  1  0  0  0  0  0999 V2000
   19.2563   46.3524   -6.3568 C   0  0  0  0  0  0  0  0  0  0  0  0
   19.5084   45.0429   -7.1201 C   0  0  2  0  0  0  0  0  0  0  0  0
   21.0126   44.7195   -7.1753 C   0  0  0  0  0  0  0  0  0  0  0  0
   21.2944   43.2911   -7.6640 C   0  0  0  0  0  0  0  0  0  0  0  0
   22.7595   42.8638   -7.4788 C   0  0  0  0  0  0  0  0  0  0  0  0
   23.0095   41.4171   -7.9280 C   0  0  0  0  0  0  0  0  0  0  0  0
   22.4708   40.3669   -6.9318 C   0  0  0  0  0  0  0  0  0  0  0  0
   22.3387   38.9464   -7.5123 C   0  0  0  0  0  0  0  0  0  0  0  0
   20.9741   38.6662   -8.1670 C   0  0  0  0  0  0  0  0  0  0  0  0
   20.7833   39.4311   -9.3874 N   0  0  0  0  0  0  0  0  0  0  0  0
   19.4666   39.7354   -9.7470 C   0  0  0  0  0  0  0  0  0  0  0  0
   18.4342   38.7737   -9.6775 C   0  0  0  0  0  0  0  0  0  0  0  0
   17.1248   39.1085  -10.0736 C   0  0  0  0  0  0  0  0  0  0  0  0
   16.8404   40.4184  -10.5153 C   0  0  0  0  0  0  0  0  0  0  0  0
   17.8619   41.3910  -10.5671 C   0  0  0  0  0  0  0  0  0  0  0  0
   19.1766   41.0356  -10.2021 C   0  0  0  0  0  0  0  0  0  0  0  0
   17.5628   42.7626  -11.0929 C   0  0  0  0  0  0  0  0  0  0  0  0
   17.2482   42.9016  -12.2732 O   0  0  0  0  0  0  0  0  0  0  0  0
   17.6604   43.8239  -10.2715 N   0  0  0  0  0  0  0  0  0  0  0  0
   17.8937   43.8715   -8.8226 C   0  0  1  0  0  0  0  0  0  0  0  0
   18.8362   45.0664   -8.5155 C   0  0  0  0  0  0  0  0  0  0  0  0
   16.5129   43.8801   -8.0920 C   0  0  1  0  0  0  0  0  0  0  0  0
   15.3185   44.3801   -8.9327 C   0  0  0  0  0  0  0  0  0  0  0  0
   14.0453   43.9364   -8.3595 N   0  0  0  0  0  0  0  0  0  0  0  0
   13.2424   43.0890   -9.2443 C   0  0  0  0  0  0  0  0  0  0  0  0
   13.1104   43.5819  -10.6754 C   0  0  0  0  0  0  0  0  0  0  0  0
   12.3621   42.8648  -11.6333 C   0  0  0  0  0  0  0  0  0  0  0  0
   12.2483   43.3579  -12.9447 C   0  0  0  0  0  0  0  0  0  0  0  0
   12.8593   44.5747  -13.3027 C   0  0  0  0  0  0  0  0  0  0  0  0
   13.6056   45.3043  -12.3523 C   0  0  0  0  0  0  0  0  0  0  0  0
   13.7185   44.8020  -11.0381 C   0  0  0  0  0  0  0  0  0  0  0  0
   14.2792   46.6141  -12.7491 C   0  0  0  0  0  0  0  0  0  0  0  0
   13.6728   47.2004  -14.0362 C   0  0  0  0  0  0  0  0  0  0  0  0
   15.8041   46.4573  -12.8627 C   0  0  0  0  0  0  0  0  0  0  0  0
   16.1797   42.5816   -7.6409 O   0  0  0  0  0  0  0  0  0  0  0  0
   16.0303   38.0605  -10.0083 C   0  0  0  0  0  0  0  0  0  0  0  0
   15.5869   37.8404   -8.6755 O   0  0  0  0  0  0  0  0  0  0  0  0
   14.8074   38.9176   -8.1837 C   0  0  0  0  0  0  0  0  0  0  0  0
   19.0785   44.2452   -6.5283 H   0  0  0  0  0  0  0  0  0  0  0  0
   18.4290   42.9685   -8.5320 H   0  0  0  0  0  0  0  0  0  0  0  0
   16.5863   44.5248   -7.2152 H   0  0  0  0  0  0  0  0  0  0  0  0
   19.7021   47.2055   -6.8643 H   0  0  0  0  0  0  0  0  0  0  0  0
   19.6781   46.3103   -5.3513 H   0  0  0  0  0  0  0  0  0  0  0  0
   18.1906   46.5509   -6.2467 H   0  0  0  0  0  0  0  0  0  0  0  0
   21.5452   45.4397   -7.7982 H   0  0  0  0  0  0  0  0  0  0  0  0
   21.4289   44.8227   -6.1719 H   0  0  0  0  0  0  0  0  0  0  0  0
   20.6438   42.6019   -7.1260 H   0  0  0  0  0  0  0  0  0  0  0  0
   21.0239   43.2030   -8.7154 H   0  0  0  0  0  0  0  0  0  0  0  0
   23.3993   43.5301   -8.0600 H   0  0  0  0  0  0  0  0  0  0  0  0
   23.0643   42.9818   -6.4372 H   0  0  0  0  0  0  0  0  0  0  0  0
   22.5846   41.2806   -8.9213 H   0  0  0  0  0  0  0  0  0  0  0  0
   24.0841   41.2548   -8.0493 H   0  0  0  0  0  0  0  0  0  0  0  0
   23.1507   40.3398   -6.0806 H   0  0  0  0  0  0  0  0  0  0  0  0
   21.5090   40.6681   -6.5185 H   0  0  0  0  0  0  0  0  0  0  0  0
   23.1546   38.7310   -8.2038 H   0  0  0  0  0  0  0  0  0  0  0  0
   22.4527   38.2386   -6.6900 H   0  0  0  0  0  0  0  0  0  0  0  0
   20.8928   37.6044   -8.4038 H   0  0  0  0  0  0  0  0  0  0  0  0
   20.1748   38.8990   -7.4632 H   0  0  0  0  0  0  0  0  0  0  0  0
   21.4576   40.1663   -9.5297 H   0  0  0  0  0  0  0  0  0  0  0  0
   18.6443   37.7701   -9.3380 H   0  0  0  0  0  0  0  0  0  0  0  0
   15.8365   40.6761  -10.8208 H   0  0  0  0  0  0  0  0  0  0  0  0
   19.9650   41.7707  -10.2722 H   0  0  0  0  0  0  0  0  0  0  0  0
   17.4362   44.7129  -10.6894 H   0  0  0  0  0  0  0  0  0  0  0  0
   18.2932   45.9987   -8.6613 H   0  0  0  0  0  0  0  0  0  0  0  0
   19.6201   45.0953   -9.2724 H   0  0  0  0  0  0  0  0  0  0  0  0
   15.3507   45.4581   -9.0505 H   0  0  0  0  0  0  0  0  0  0  0  0
   15.4095   43.9951   -9.9481 H   0  0  0  0  0  0  0  0  0  0  0  0
   14.2580   43.4296   -7.5047 H   0  0  0  0  0  0  0  0  0  0  0  0
   13.6883   42.0959   -9.2889 H   0  0  0  0  0  0  0  0  0  0  0  0
   12.2468   42.9446   -8.8199 H   0  0  0  0  0  0  0  0  0  0  0  0
   11.8719   41.9367  -11.3763 H   0  0  0  0  0  0  0  0  0  0  0  0
   11.6823   42.8004  -13.6727 H   0  0  0  0  0  0  0  0  0  0  0  0
   12.7479   44.9465  -14.3140 H   0  0  0  0  0  0  0  0  0  0  0  0
   14.2812   45.3584  -10.3014 H   0  0  0  0  0  0  0  0  0  0  0  0
   14.0938   47.3336  -11.9491 H   0  0  0  0  0  0  0  0  0  0  0  0
   12.5928   47.3246  -13.9459 H   0  0  0  0  0  0  0  0  0  0  0  0
   13.8581   46.5595  -14.8979 H   0  0  0  0  0  0  0  0  0  0  0  0
   14.0992   48.1787  -14.2553 H   0  0  0  0  0  0  0  0  0  0  0  0
   16.2283   46.1079  -11.9234 H   0  0  0  0  0  0  0  0  0  0  0  0
   16.2814   47.4079  -13.0984 H   0  0  0  0  0  0  0  0  0  0  0  0
   16.0780   45.7433  -13.6410 H   0  0  0  0  0  0  0  0  0  0  0  0
   15.8730   42.6390   -6.7475 H   0  0  0  0  0  0  0  0  0  0  0  0
   15.1939   38.4011  -10.6248 H   0  0  0  0  0  0  0  0  0  0  0  0
   16.3889   37.1240  -10.4356 H   0  0  0  0  0  0  0  0  0  0  0  0
   14.4860   38.7040   -7.1642 H   0  0  0  0  0  0  0  0  0  0  0  0
   13.9187   39.0739   -8.7960 H   0  0  0  0  0  0  0  0  0  0  0  0
   15.3894   39.8418   -8.1676 H   0  0  0  0  0  0  0  0  0  0  0  0
  1  2  1  0  0  0  0
  1 42  1  0  0  0  0
  1 43  1  0  0  0  0
  1 44  1  0  0  0  0
  2 39  1  1  0  0  0
  2 21  1  0  0  0  0
  2  3  1  0  0  0  0
  3  4  1  0  0  0  0
  3 45  1  0  0  0  0
  3 46  1  0  0  0  0
  4  5  1  0  0  0  0
  4 47  1  0  0  0  0
  4 48  1  0  0  0  0
  5  6  1  0  0  0  0
  5 49  1  0  0  0  0
  5 50  1  0  0  0  0
  6  7  1  0  0  0  0
  6 51  1  0  0  0  0
  6 52  1  0  0  0  0
  7  8  1  0  0  0  0
  7 53  1  0  0  0  0
  7 54  1  0  0  0  0
  8  9  1  0  0  0  0
  8 55  1  0  0  0  0
  8 56  1  0  0  0  0
  9 10  1  0  0  0  0
  9 57  1  0  0  0  0
  9 58  1  0  0  0  0
 10 11  1  0  0  0  0
 10 59  1  0  0  0  0
 11 16  1  0  0  0  0
 11 12  2  0  0  0  0
 12 13  1  0  0  0  0
 12 60  1  0  0  0  0
 13 14  2  0  0  0  0
 13 36  1  0  0  0  0
 14 15  1  0  0  0  0
 14 61  1  0  0  0  0
 15 16  2  0  0  0  0
 15 17  1  0  0  0  0
 16 62  1  0  0  0  0
 17 18  2  0  0  0  0
 17 19  1  0  0  0  0
 19 20  1  0  0  0  0
 19 63  1  0  0  0  0
 20 40  1  1  0  0  0
 20 21  1  0  0  0  0
 20 22  1  0  0  0  0
 21 64  1  0  0  0  0
 21 65  1  0  0  0  0
 22 41  1  1  0  0  0
 22 23  1  0  0  0  0
 22 35  1  0  0  0  0
 23 24  1  0  0  0  0
 23 66  1  0  0  0  0
 23 67  1  0  0  0  0
 24 25  1  0  0  0  0
 24 68  1  0  0  0  0
 25 26  1  0  0  0  0
 25 69  1  0  0  0  0
 25 70  1  0  0  0  0
 26 31  1  0  0  0  0
 26 27  2  0  0  0  0
 27 28  1  0  0  0  0
 27 71  1  0  0  0  0
 28 29  2  0  0  0  0
 28 72  1  0  0  0  0
 29 30  1  0  0  0  0
 29 73  1  0  0  0  0
 30 31  2  0  0  0  0
 30 32  1  0  0  0  0
 31 74  1  0  0  0  0
 32 33  1  0  0  0  0
 32 34  1  0  0  0  0
 32 75  1  0  0  0  0
 33 76  1  0  0  0  0
 33 77  1  0  0  0  0
 33 78  1  0  0  0  0
 34 79  1  0  0  0  0
 34 80  1  0  0  0  0
 34 81  1  0  0  0  0
 35 82  1  0  0  0  0
 36 37  1  0  0  0  0
 36 83  1  0  0  0  0
 36 84  1  0  0  0  0
 37 38  1  0  0  0  0
 38 85  1  0  0  0  0
 38 86  1  0  0  0  0
 38 87  1  0  0  0  0
M  END
>  <s_m_source_file>
BACE_9.smi

>  <i_m_source_file_index>
1

>  <i_lp_mmshare_version>
42013

>  <i_f3d_flags>
0

>  <s_epik_input>
W05IXTFbQ0gyXVtDSDJdW0NIMl1bQ0gyXVtDSDJdW0NIMl1bQ0gyXVtDQEBIXShbQ0gzXSlbQ0gyXVtDQEhdKFtOSF1DKD1PKWMoW2NIXTIpW2NIXWMoW2NIXWMxMilbQ0gyXU9bQ0gzXSlbQ0BIXShbT0hdKVtDSDJdW05IXVtDSDJdYzNbY0hdW2NIXVtjSF1jKFtjSF0zKVtDSF0oW0NIM10pW0NIM10=

>  <s_epik_cmdline>
J2VwaWtfcHl0aG9uJywgJy1waCcsICc3LjAnLCAnLXRuJywgJzgnLCAnLW1hJywgJzIwMCcsICctaW1hZScsICc8aW5maWxlLm1hZT4nLCAnLW9tYWUnLCAnPG91dGZpbGUubWFlPic=

>  <r_epik_Ionization_Penalty>
2.13

>  <r_epik_Ionization_Penalty_Charging>
0

>  <r_epik_Ionization_Penalty_Neutral>
2.13

>  <r_epik_State_Penalty>
2.2676

>  <r_epik_Charging_Adjusted_Penalty>
2.26762

>  <i_epik_Tot_Q>
0

>  <i_epik_Tot_abs_Q>
0

>  <s_lp_Force_Field>
OPLS_2005

>  <r_lp_Energy>
47.2954

>  <b_lp_Chiralities_Consistent>
1

>  <s_lp_Variant>
BACE_9.smi:1-2

>  <chiral flag>
1

>  <version>
0

>  <r_i_glide_lipo>
-0.947222

>  <r_i_glide_hbond>
-0.319819

>  <r_i_glide_metal>
-0

>  <r_i_glide_rewards>
0

>  <r_i_glide_erotb>
0.44997

>  <r_i_glide_esite>
-0.00440583

>  <s_i_glide_gridfile>
second_dock_grid_2

>  <i_i_glide_lignum>
19

>  <i_i_glide_rotatable_bonds>
9

>  <r_i_docking_score>
-1.96021

>  <r_i_glide_ligand_efficiency>
-0.0515845

>  <r_i_glide_ligand_efficiency_sa>
-0.173426

>  <r_i_glide_ligand_efficiency_ln>
-0.422679

>  <r_glide_XP_GScore>
-4.22781

>  <r_i_glide_gscore>
-4.22781

>  <r_i_glide_evdw>
-28.3892

>  <r_i_glide_ecoul>
-12.0481

>  <r_i_glide_energy>
-40.4373

>  <r_i_glide_einternal>
8.95954

>  <r_i_glide_emodel>
-58.2138

>  <r_glide_XP_HBond>
-1.62339

>  <i_i_glide_confnum>
1

>  <i_i_glide_posenum>
6

>  <r_i_glide_eff_state_penalty>
2.2676

>  <i_glide_XP_PoseRank>
3

>  <chiral flag>
1

$$$$
