BACE_20.smi:1
 OpenBabel10031817133D
Structure written by MMmdl.
 78 79  0  0  1  0  0  0  0  0999 V2000
   30.9362   42.4101  -15.7346 C   0  0  0  0  0  0  0  0  0  0  0  0
   30.9766   42.6190  -14.2164 C   0  0  0  0  0  0  0  0  0  0  0  0
   29.7787   41.9808  -13.4992 C   0  0  0  0  0  0  0  0  0  0  0  0
   29.7606   42.3138  -11.9980 C   0  0  0  0  0  0  0  0  0  0  0  0
   28.6099   41.7500  -11.3011 N   0  0  0  0  0  0  0  0  0  0  0  0
   27.3372   42.3273  -11.3967 C   0  0  0  0  0  0  0  0  0  0  0  0
   26.2815   41.7504  -10.6673 C   0  0  0  0  0  0  0  0  0  0  0  0
   24.9886   42.2959  -10.8001 C   0  0  0  0  0  0  0  0  0  0  0  0
   24.8077   43.4055  -11.6522 C   0  0  0  0  0  0  0  0  0  0  0  0
   25.9265   43.9333  -12.3206 C   0  0  0  0  0  0  0  0  0  0  0  0
   27.1681   43.4093  -12.1878 N   0  0  0  0  0  0  0  0  0  0  0  0
   25.7509   45.0231  -13.1479 O   0  0  0  0  0  0  0  0  0  0  0  0
   26.9043   45.5952  -13.7554 C   0  0  0  0  0  0  0  0  0  0  0  0
   23.8321   41.7144  -10.0520 C   0  0  0  0  0  0  0  0  0  0  0  0
   23.8524   41.6307   -8.8240 O   0  0  0  0  0  0  0  0  0  0  0  0
   22.8241   41.2956  -10.8378 N   0  0  0  0  0  0  0  0  0  0  0  0
   21.5609   40.6652  -10.4332 C   0  0  1  0  0  0  0  0  0  0  0  0
   21.7429   39.4859   -9.4389 C   0  0  0  0  0  0  0  0  0  0  0  0
   20.4404   38.7992   -9.0551 C   0  0  0  0  0  0  0  0  0  0  0  0
   19.6676   38.1501  -10.0401 C   0  0  0  0  0  0  0  0  0  0  0  0
   18.4855   37.4754   -9.6845 C   0  0  0  0  0  0  0  0  0  0  0  0
   18.0602   37.4605   -8.3466 C   0  0  0  0  0  0  0  0  0  0  0  0
   18.7968   38.1510   -7.3662 C   0  0  0  0  0  0  0  0  0  0  0  0
   19.9905   38.8127   -7.7165 C   0  0  0  0  0  0  0  0  0  0  0  0
   20.4705   41.6916  -10.0237 C   0  0  2  0  0  0  0  0  0  0  0  0
   20.0489   42.6532  -11.1583 C   0  0  0  0  0  0  0  0  0  0  0  0
   18.7992   43.5127  -10.8455 C   0  0  1  0  0  0  0  0  0  0  0  0
   18.5857   44.5838  -11.9312 C   0  0  0  0  0  0  0  0  0  0  0  0
   17.5325   42.6529  -10.6688 C   0  0  0  0  0  0  0  0  0  0  0  0
   16.8596   42.3263  -11.6493 O   0  0  0  0  0  0  0  0  0  0  0  0
   17.2183   42.2963   -9.4125 N   0  0  0  0  0  0  0  0  0  0  0  0
   16.1047   41.4346   -9.0337 C   0  0  0  0  0  0  0  0  0  0  0  0
   16.2066   41.0455   -7.5490 C   0  0  0  0  0  0  0  0  0  0  0  0
   15.0157   40.2206   -7.0292 C   0  0  0  0  0  0  0  0  0  0  0  0
   14.9417   38.7945   -7.5734 C   0  0  0  0  0  0  0  0  0  0  0  0
   20.8861   42.4416   -8.8990 O   0  0  0  0  0  0  0  0  0  0  0  0
   21.1969   40.2067  -11.3528 H   0  0  0  0  0  0  0  0  0  0  0  0
   19.5925   41.1261   -9.7194 H   0  0  0  0  0  0  0  0  0  0  0  0
   18.9744   44.0439   -9.9084 H   0  0  0  0  0  0  0  0  0  0  0  0
   31.7990   42.8713  -16.2146 H   0  0  0  0  0  0  0  0  0  0  0  0
   30.0368   42.8485  -16.1677 H   0  0  0  0  0  0  0  0  0  0  0  0
   30.9443   41.3499  -15.9856 H   0  0  0  0  0  0  0  0  0  0  0  0
   31.0011   43.6897  -14.0084 H   0  0  0  0  0  0  0  0  0  0  0  0
   31.9034   42.2058  -13.8172 H   0  0  0  0  0  0  0  0  0  0  0  0
   29.7988   40.9001  -13.6403 H   0  0  0  0  0  0  0  0  0  0  0  0
   28.8601   42.3318  -13.9681 H   0  0  0  0  0  0  0  0  0  0  0  0
   29.7799   43.3930  -11.8482 H   0  0  0  0  0  0  0  0  0  0  0  0
   30.6640   41.9240  -11.5304 H   0  0  0  0  0  0  0  0  0  0  0  0
   28.6715   40.8035  -10.9402 H   0  0  0  0  0  0  0  0  0  0  0  0
   26.4474   40.8860  -10.0383 H   0  0  0  0  0  0  0  0  0  0  0  0
   23.8336   43.8546  -11.7834 H   0  0  0  0  0  0  0  0  0  0  0  0
   26.6085   46.4566  -14.3542 H   0  0  0  0  0  0  0  0  0  0  0  0
   27.4034   44.8898  -14.4198 H   0  0  0  0  0  0  0  0  0  0  0  0
   27.6181   45.9433  -13.0067 H   0  0  0  0  0  0  0  0  0  0  0  0
   23.0077   41.3472  -11.8331 H   0  0  0  0  0  0  0  0  0  0  0  0
   22.4097   38.7380   -9.8729 H   0  0  0  0  0  0  0  0  0  0  0  0
   22.2220   39.8175   -8.5190 H   0  0  0  0  0  0  0  0  0  0  0  0
   19.9922   38.1468  -11.0700 H   0  0  0  0  0  0  0  0  0  0  0  0
   17.9149   36.9531  -10.4396 H   0  0  0  0  0  0  0  0  0  0  0  0
   17.1757   36.9069   -8.0719 H   0  0  0  0  0  0  0  0  0  0  0  0
   18.4529   38.1511   -6.3407 H   0  0  0  0  0  0  0  0  0  0  0  0
   20.5604   39.3188   -6.9509 H   0  0  0  0  0  0  0  0  0  0  0  0
   19.8573   42.0744  -12.0623 H   0  0  0  0  0  0  0  0  0  0  0  0
   20.8893   43.3071  -11.3991 H   0  0  0  0  0  0  0  0  0  0  0  0
   19.4337   45.2673  -11.9771 H   0  0  0  0  0  0  0  0  0  0  0  0
   17.6955   45.1824  -11.7300 H   0  0  0  0  0  0  0  0  0  0  0  0
   18.4686   44.1351  -12.9183 H   0  0  0  0  0  0  0  0  0  0  0  0
   17.8307   42.5981   -8.6683 H   0  0  0  0  0  0  0  0  0  0  0  0
   16.1098   40.5399   -9.6569 H   0  0  0  0  0  0  0  0  0  0  0  0
   15.1687   41.9578   -9.2236 H   0  0  0  0  0  0  0  0  0  0  0  0
   16.2729   41.9537   -6.9465 H   0  0  0  0  0  0  0  0  0  0  0  0
   17.1325   40.5003   -7.3650 H   0  0  0  0  0  0  0  0  0  0  0  0
   14.0795   40.7356   -7.2397 H   0  0  0  0  0  0  0  0  0  0  0  0
   15.0807   40.1555   -5.9425 H   0  0  0  0  0  0  0  0  0  0  0  0
   14.0599   38.2868   -7.1956 H   0  0  0  0  0  0  0  0  0  0  0  0
   15.7896   38.2159   -7.2249 H   0  0  0  0  0  0  0  0  0  0  0  0
   14.9065   38.7607   -8.6619 H   0  0  0  0  0  0  0  0  0  0  0  0
   21.4711   41.9052   -8.3803 H   0  0  0  0  0  0  0  0  0  0  0  0
  1  2  1  0  0  0  0
  1 40  1  0  0  0  0
  1 41  1  0  0  0  0
  1 42  1  0  0  0  0
  2  3  1  0  0  0  0
  2 43  1  0  0  0  0
  2 44  1  0  0  0  0
  3  4  1  0  0  0  0
  3 45  1  0  0  0  0
  3 46  1  0  0  0  0
  4  5  1  0  0  0  0
  4 47  1  0  0  0  0
  4 48  1  0  0  0  0
  5  6  1  0  0  0  0
  5 49  1  0  0  0  0
  6 11  1  0  0  0  0
  6  7  2  0  0  0  0
  7  8  1  0  0  0  0
  7 50  1  0  0  0  0
  8  9  2  0  0  0  0
  8 14  1  0  0  0  0
  9 10  1  0  0  0  0
  9 51  1  0  0  0  0
 10 11  2  0  0  0  0
 10 12  1  0  0  0  0
 12 13  1  0  0  0  0
 13 52  1  0  0  0  0
 13 53  1  0  0  0  0
 13 54  1  0  0  0  0
 14 15  2  0  0  0  0
 14 16  1  0  0  0  0
 16 17  1  0  0  0  0
 16 55  1  0  0  0  0
 17 37  1  6  0  0  0
 17 18  1  0  0  0  0
 17 25  1  0  0  0  0
 18 19  1  0  0  0  0
 18 56  1  0  0  0  0
 18 57  1  0  0  0  0
 19 24  1  0  0  0  0
 19 20  2  0  0  0  0
 20 21  1  0  0  0  0
 20 58  1  0  0  0  0
 21 22  2  0  0  0  0
 21 59  1  0  0  0  0
 22 23  1  0  0  0  0
 22 60  1  0  0  0  0
 23 24  2  0  0  0  0
 23 61  1  0  0  0  0
 24 62  1  0  0  0  0
 25 38  1  1  0  0  0
 25 26  1  0  0  0  0
 25 36  1  0  0  0  0
 26 27  1  0  0  0  0
 26 63  1  0  0  0  0
 26 64  1  0  0  0  0
 27 39  1  1  0  0  0
 27 28  1  0  0  0  0
 27 29  1  0  0  0  0
 28 65  1  0  0  0  0
 28 66  1  0  0  0  0
 28 67  1  0  0  0  0
 29 30  2  0  0  0  0
 29 31  1  0  0  0  0
 31 32  1  0  0  0  0
 31 68  1  0  0  0  0
 32 33  1  0  0  0  0
 32 69  1  0  0  0  0
 32 70  1  0  0  0  0
 33 34  1  0  0  0  0
 33 71  1  0  0  0  0
 33 72  1  0  0  0  0
 34 35  1  0  0  0  0
 34 73  1  0  0  0  0
 34 74  1  0  0  0  0
 35 75  1  0  0  0  0
 35 76  1  0  0  0  0
 35 77  1  0  0  0  0
 36 78  1  0  0  0  0
M  END
>  <s_m_source_file>
BACE_20.smi

>  <i_m_source_file_index>
1

>  <i_lp_mmshare_version>
42013

>  <i_f3d_flags>
0

>  <s_epik_input>
W0NIM11bQ0gyXVtDSDJdW0NIMl1bTkhdYzFbY0hdYyhbY0hdYyhuMSlPW0NIM10pQyg9TylbTkhdW0NAQEhdKFtDSDJdYzJbY0hdW2NIXVtjSF1bY0hdW2NIXTIpW0NAQEhdKFtPSF0pW0NIMl1bQ0BASF0oW0NIM10pQyg9TylbTkhdW0NIMl1bQ0gyXVtDSDJdW0NIM10=

>  <s_epik_cmdline>
J2VwaWtfcHl0aG9uJywgJy1waCcsICc3LjAnLCAnLXRuJywgJzgnLCAnLW1hJywgJzIwMCcsICctaW1hZScsICc8aW5maWxlLm1hZT4nLCAnLW9tYWUnLCAnPG91dGZpbGUubWFlPic=

>  <r_lp_tautomer_probability>
1

>  <r_epik_Ionization_Penalty>
0

>  <r_epik_Ionization_Penalty_Charging>
0

>  <r_epik_Ionization_Penalty_Neutral>
0

>  <r_epik_State_Penalty>
-0

>  <r_epik_Charging_Adjusted_Penalty>
0

>  <i_epik_Tot_Q>
0

>  <i_epik_Tot_abs_Q>
0

>  <s_lp_Force_Field>
OPLS_2005

>  <r_lp_Energy>
20.6133

>  <b_lp_Chiralities_Consistent>
1

>  <s_lp_Variant>
BACE_20.smi:1-1

>  <chiral flag>
1

>  <version>
0

>  <r_i_glide_lipo>
-0.356177

>  <r_i_glide_hbond>
-0.618841

>  <r_i_glide_metal>
-0

>  <r_i_glide_rewards>
-0.170657

>  <r_i_glide_erotb>
1.14898

>  <r_i_glide_esite>
-0.0668184

>  <s_i_glide_gridfile>
second_dock_grid_2

>  <i_i_glide_lignum>
37

>  <i_i_glide_rotatable_bonds>
19

>  <r_i_docking_score>
-4.06429

>  <r_i_glide_ligand_efficiency>
-0.112897

>  <r_i_glide_ligand_efficiency_sa>
-0.372778

>  <r_i_glide_ligand_efficiency_ln>
-0.886719

>  <r_glide_XP_GScore>
-4.06429

>  <r_i_glide_gscore>
-4.06429

>  <r_i_glide_evdw>
-41.5241

>  <r_i_glide_ecoul>
-9.62566

>  <r_i_glide_energy>
-51.1497

>  <r_i_glide_einternal>
9.02114

>  <r_i_glide_emodel>
-68.1368

>  <r_glide_XP_HBond>
-1.25393

>  <i_i_glide_confnum>
1

>  <i_i_glide_posenum>
16

>  <r_i_glide_eff_state_penalty>
-0

>  <i_glide_XP_PoseRank>
7

>  <chiral flag>
1

$$$$
