BACE_14.smi:1
 OpenBabel10031817133D
Structure written by MMmdl.
 85 89  0  0  1  0  0  0  0  0999 V2000
   29.3997   41.1863  -12.0679 C   0  0  0  0  0  0  0  0  0  0  0  0
   29.3238   42.7000  -11.8272 C   0  0  0  0  0  0  0  0  0  0  0  0
   29.1825   43.4732  -13.1447 C   0  0  0  0  0  0  0  0  0  0  0  0
   28.2170   43.0809  -10.8522 C   0  0  0  0  0  0  0  0  0  0  0  0
   28.5358   43.7276   -9.6395 C   0  0  0  0  0  0  0  0  0  0  0  0
   27.5118   44.1476   -8.7693 C   0  0  0  0  0  0  0  0  0  0  0  0
   26.1643   43.9313   -9.1137 C   0  0  0  0  0  0  0  0  0  0  0  0
   25.8276   43.2832  -10.3211 C   0  0  0  0  0  0  0  0  0  0  0  0
   26.8622   42.8439  -11.1747 C   0  0  0  0  0  0  0  0  0  0  0  0
   24.3896   43.0928  -10.7063 C   0  0  0  0  0  0  0  0  0  0  0  0
   23.4792   44.2917  -10.8786 C   0  0  0  0  0  0  0  0  0  0  0  0
   23.9378   43.5140  -12.0875 C   0  0  0  0  0  0  0  0  0  0  0  0
   23.8270   41.8525  -10.1779 N   0  0  0  0  0  0  0  0  0  0  0  0
   23.3014   41.9594   -8.8159 C   0  0  0  0  0  0  0  0  0  0  0  0
   22.6207   40.6433   -8.3903 C   0  0  2  0  0  0  0  0  0  0  0  0
   21.6702   40.7812   -7.1700 C   0  0  2  0  0  0  0  0  0  0  0  0
   20.9996   39.4399   -6.7643 C   0  0  0  0  0  0  0  0  0  0  0  0
   19.8810   38.9732   -7.6887 C   0  0  0  0  0  0  0  0  0  0  0  0
   20.1717   38.2849   -8.8846 C   0  0  0  0  0  0  0  0  0  0  0  0
   19.1238   37.8656   -9.7260 C   0  0  0  0  0  0  0  0  0  0  0  0
   17.7828   38.1131   -9.3754 C   0  0  0  0  0  0  0  0  0  0  0  0
   17.4782   38.8089   -8.1808 C   0  0  0  0  0  0  0  0  0  0  0  0
   18.5356   39.2203   -7.3472 C   0  0  0  0  0  0  0  0  0  0  0  0
   16.2029   39.1282   -7.7664 O   0  0  0  0  0  0  0  0  0  0  0  0
   15.1468   39.1804   -8.7211 C   0  0  0  0  0  0  0  0  0  0  0  0
   15.3660   40.3122   -9.7452 C   0  0  0  0  0  0  0  0  0  0  0  0
   15.5408   41.6973   -9.0967 C   0  0  0  0  0  0  0  0  0  0  0  0
   16.2230   42.6889  -10.0541 C   0  0  0  0  0  0  0  0  0  0  0  0
   16.3761   44.0206   -9.4834 N   0  0  0  0  0  0  0  0  0  0  0  0
   17.3660   44.3309   -8.5358 C   0  0  0  0  0  0  0  0  0  0  0  0
   18.3176   43.3957   -8.0622 C   0  0  0  0  0  0  0  0  0  0  0  0
   19.2769   43.7689   -7.0896 C   0  0  0  0  0  0  0  0  0  0  0  0
   19.2529   45.0844   -6.5710 C   0  0  0  0  0  0  0  0  0  0  0  0
   18.3277   46.0345   -7.0550 C   0  0  0  0  0  0  0  0  0  0  0  0
   17.3929   45.6491   -8.0391 C   0  0  0  0  0  0  0  0  0  0  0  0
   18.2720   47.3944   -6.4611 C   0  0  0  0  0  0  0  0  0  0  0  0
   18.4601   47.6249   -5.2678 O   0  0  0  0  0  0  0  0  0  0  0  0
   17.9339   48.5462   -7.4020 C   0  0  0  0  0  0  0  0  0  0  0  0
   20.2884   42.7822   -6.5696 C   0  0  0  0  0  0  0  0  0  0  0  0
   20.7944   42.9304   -5.4571 O   0  0  0  0  0  0  0  0  0  0  0  0
   20.6529   41.8077   -7.4209 N   0  0  0  0  0  0  0  0  0  0  0  0
   23.6581   39.7508   -8.0398 O   0  0  0  0  0  0  0  0  0  0  0  0
   22.0646   40.2369   -9.2354 H   0  0  0  0  0  0  0  0  0  0  0  0
   22.2931   41.0936   -6.3294 H   0  0  0  0  0  0  0  0  0  0  0  0
   30.1596   40.9502  -12.8110 H   0  0  0  0  0  0  0  0  0  0  0  0
   28.4601   40.7817  -12.4383 H   0  0  0  0  0  0  0  0  0  0  0  0
   29.6604   40.6570  -11.1516 H   0  0  0  0  0  0  0  0  0  0  0  0
   30.2761   42.9986  -11.3848 H   0  0  0  0  0  0  0  0  0  0  0  0
   29.9938   43.2363  -13.8340 H   0  0  0  0  0  0  0  0  0  0  0  0
   29.2012   44.5498  -12.9709 H   0  0  0  0  0  0  0  0  0  0  0  0
   28.2426   43.2350  -13.6393 H   0  0  0  0  0  0  0  0  0  0  0  0
   29.5668   43.9200   -9.3773 H   0  0  0  0  0  0  0  0  0  0  0  0
   27.7621   44.6448   -7.8443 H   0  0  0  0  0  0  0  0  0  0  0  0
   25.3841   44.2710   -8.4486 H   0  0  0  0  0  0  0  0  0  0  0  0
   26.6060   42.3516  -12.1012 H   0  0  0  0  0  0  0  0  0  0  0  0
   22.4263   44.1972  -10.6213 H   0  0  0  0  0  0  0  0  0  0  0  0
   23.9080   45.2820  -10.7304 H   0  0  0  0  0  0  0  0  0  0  0  0
   24.6596   43.9980  -12.7420 H   0  0  0  0  0  0  0  0  0  0  0  0
   23.1887   42.9092  -12.5934 H   0  0  0  0  0  0  0  0  0  0  0  0
   24.5625   41.1539  -10.1713 H   0  0  0  0  0  0  0  0  0  0  0  0
   22.5767   42.7716   -8.7809 H   0  0  0  0  0  0  0  0  0  0  0  0
   24.0881   42.2239   -8.1081 H   0  0  0  0  0  0  0  0  0  0  0  0
   21.7418   38.6452   -6.6760 H   0  0  0  0  0  0  0  0  0  0  0  0
   20.5814   39.5502   -5.7622 H   0  0  0  0  0  0  0  0  0  0  0  0
   21.1949   38.0712   -9.1584 H   0  0  0  0  0  0  0  0  0  0  0  0
   19.3457   37.3502  -10.6485 H   0  0  0  0  0  0  0  0  0  0  0  0
   17.0050   37.7667  -10.0378 H   0  0  0  0  0  0  0  0  0  0  0  0
   18.2996   39.7499   -6.4396 H   0  0  0  0  0  0  0  0  0  0  0  0
   15.0105   38.2166   -9.2140 H   0  0  0  0  0  0  0  0  0  0  0  0
   14.2197   39.3636   -8.1754 H   0  0  0  0  0  0  0  0  0  0  0  0
   16.2405   40.0862  -10.3556 H   0  0  0  0  0  0  0  0  0  0  0  0
   14.5237   40.3430  -10.4373 H   0  0  0  0  0  0  0  0  0  0  0  0
   14.5692   42.0779   -8.7773 H   0  0  0  0  0  0  0  0  0  0  0  0
   16.1369   41.6080   -8.1875 H   0  0  0  0  0  0  0  0  0  0  0  0
   17.1961   42.3107  -10.3732 H   0  0  0  0  0  0  0  0  0  0  0  0
   15.6230   42.7816  -10.9604 H   0  0  0  0  0  0  0  0  0  0  0  0
   15.6843   44.7159   -9.7167 H   0  0  0  0  0  0  0  0  0  0  0  0
   18.3026   42.3809   -8.4288 H   0  0  0  0  0  0  0  0  0  0  0  0
   19.9625   45.3686   -5.8049 H   0  0  0  0  0  0  0  0  0  0  0  0
   16.6588   46.3568   -8.3929 H   0  0  0  0  0  0  0  0  0  0  0  0
   16.8602   48.5936   -7.5765 H   0  0  0  0  0  0  0  0  0  0  0  0
   18.4377   48.4175   -8.3594 H   0  0  0  0  0  0  0  0  0  0  0  0
   18.2538   49.4935   -6.9697 H   0  0  0  0  0  0  0  0  0  0  0  0
   20.1833   41.7647   -8.3120 H   0  0  0  0  0  0  0  0  0  0  0  0
   24.0406   39.3841   -8.8304 H   0  0  0  0  0  0  0  0  0  0  0  0
  1  2  1  0  0  0  0
  1 45  1  0  0  0  0
  1 46  1  0  0  0  0
  1 47  1  0  0  0  0
  2  3  1  0  0  0  0
  2  4  1  0  0  0  0
  2 48  1  0  0  0  0
  3 49  1  0  0  0  0
  3 50  1  0  0  0  0
  3 51  1  0  0  0  0
  4  9  1  0  0  0  0
  4  5  2  0  0  0  0
  5  6  1  0  0  0  0
  5 52  1  0  0  0  0
  6  7  2  0  0  0  0
  6 53  1  0  0  0  0
  7  8  1  0  0  0  0
  7 54  1  0  0  0  0
  8  9  2  0  0  0  0
  8 10  1  0  0  0  0
  9 55  1  0  0  0  0
 10 12  1  0  0  0  0
 10 11  1  0  0  0  0
 10 13  1  0  0  0  0
 11 12  1  0  0  0  0
 11 56  1  0  0  0  0
 11 57  1  0  0  0  0
 12 58  1  0  0  0  0
 12 59  1  0  0  0  0
 13 14  1  0  0  0  0
 13 60  1  0  0  0  0
 14 15  1  0  0  0  0
 14 61  1  0  0  0  0
 14 62  1  0  0  0  0
 15 43  1  6  0  0  0
 15 16  1  0  0  0  0
 15 42  1  0  0  0  0
 16 44  1  1  0  0  0
 16 41  1  0  0  0  0
 16 17  1  0  0  0  0
 17 18  1  0  0  0  0
 17 63  1  0  0  0  0
 17 64  1  0  0  0  0
 18 23  1  0  0  0  0
 18 19  2  0  0  0  0
 19 20  1  0  0  0  0
 19 65  1  0  0  0  0
 20 21  2  0  0  0  0
 20 66  1  0  0  0  0
 21 22  1  0  0  0  0
 21 67  1  0  0  0  0
 22 23  2  0  0  0  0
 22 24  1  0  0  0  0
 23 68  1  0  0  0  0
 24 25  1  0  0  0  0
 25 26  1  0  0  0  0
 25 69  1  0  0  0  0
 25 70  1  0  0  0  0
 26 27  1  0  0  0  0
 26 71  1  0  0  0  0
 26 72  1  0  0  0  0
 27 28  1  0  0  0  0
 27 73  1  0  0  0  0
 27 74  1  0  0  0  0
 28 29  1  0  0  0  0
 28 75  1  0  0  0  0
 28 76  1  0  0  0  0
 29 30  1  0  0  0  0
 29 77  1  0  0  0  0
 30 35  1  0  0  0  0
 30 31  2  0  0  0  0
 31 32  1  0  0  0  0
 31 78  1  0  0  0  0
 32 33  2  0  0  0  0
 32 39  1  0  0  0  0
 33 34  1  0  0  0  0
 33 79  1  0  0  0  0
 34 35  2  0  0  0  0
 34 36  1  0  0  0  0
 35 80  1  0  0  0  0
 36 37  2  0  0  0  0
 36 38  1  0  0  0  0
 38 81  1  0  0  0  0
 38 82  1  0  0  0  0
 38 83  1  0  0  0  0
 39 40  2  0  0  0  0
 39 41  1  0  0  0  0
 41 84  1  0  0  0  0
 42 85  1  0  0  0  0
M  END
>  <s_m_source_file>
BACE_14.smi

>  <i_m_source_file_index>
1

>  <i_lp_mmshare_version>
42013

>  <i_f3d_flags>
0

>  <s_epik_input>
W0NIM11bQ0hdKFtDSDNdKWMxW2NIXVtjSF1bY0hdYyhbY0hdMSlDMihbQ0gyXVtDSDJdMilbTkhdW0NIMl1bQ0BASF0oW09IXSlbQ0BIXShbQ0gyXTMpW05IXUMoPU8pYyhbY0hdYyhbY0hdNClDKD1PKVtDSDNdKVtjSF1jNFtOSF1bQ0gyXVtDSDJdW0NIMl1bQ0gyXU9jKFtjSF01KVtjSF1bY0hdW2NIXWMzNQ==

>  <s_epik_cmdline>
J2VwaWtfcHl0aG9uJywgJy1waCcsICc3LjAnLCAnLXRuJywgJzgnLCAnLW1hJywgJzIwMCcsICctaW1hZScsICc8aW5maWxlLm1hZT4nLCAnLW9tYWUnLCAnPG91dGZpbGUubWFlPic=

>  <r_lp_tautomer_probability>
0.99995

>  <r_epik_Ionization_Penalty>
0.323

>  <r_epik_Ionization_Penalty_Charging>
0

>  <r_epik_Ionization_Penalty_Neutral>
0.323

>  <r_epik_State_Penalty>
0.3176

>  <r_epik_Charging_Adjusted_Penalty>
0.317604

>  <i_epik_Tot_Q>
0

>  <i_epik_Tot_abs_Q>
0

>  <s_lp_Force_Field>
OPLS_2005

>  <r_lp_Energy>
47.6892

>  <b_lp_Chiralities_Consistent>
1

>  <s_lp_Variant>
BACE_14.smi:1-1

>  <chiral flag>
1

>  <version>
0

>  <r_i_glide_lipo>
-0.807694

>  <r_i_glide_hbond>
-1.1636

>  <r_i_glide_metal>
-0

>  <r_i_glide_rewards>
0

>  <r_i_glide_erotb>
0.231492

>  <r_i_glide_esite>
-0.00379964

>  <s_i_glide_gridfile>
second_dock_grid_2

>  <i_i_glide_lignum>
28

>  <i_i_glide_rotatable_bonds>
8

>  <r_i_docking_score>
1.13763

>  <r_i_glide_ligand_efficiency>
0.0270865

>  <r_i_glide_ligand_efficiency_sa>
0.0941533

>  <r_i_glide_ligand_efficiency_ln>
0.240125

>  <r_glide_XP_GScore>
0.820032

>  <r_i_glide_gscore>
0.820032

>  <r_i_glide_evdw>
-46.8284

>  <r_i_glide_ecoul>
-6.27977

>  <r_i_glide_energy>
-53.1081

>  <r_i_glide_einternal>
8.01241

>  <r_i_glide_emodel>
-71.155

>  <r_glide_XP_HBond>
-1.34839

>  <i_i_glide_confnum>
1

>  <i_i_glide_posenum>
12

>  <r_i_glide_eff_state_penalty>
0.3176

>  <i_glide_XP_PoseRank>
8

>  <chiral flag>
1

$$$$
