BACE_7.smi:1
 OpenBabel10031817133D
Structure written by MMmdl.
 98102  0  0  1  0  0  0  0  0999 V2000
   25.8984   43.3203  -12.0800 C   0  0  0  0  0  0  0  0  0  0  0  0
   26.3662   42.7082  -10.7517 C   0  0  2  0  0  0  0  0  0  0  0  0
   27.7902   42.1183  -10.8615 C   0  0  0  0  0  0  0  0  0  0  0  0
   28.9053   43.1828  -10.8066 C   0  0  0  0  0  0  0  0  0  0  0  0
   29.1787   43.6935   -9.3794 C   0  0  0  0  0  0  0  0  0  0  0  0
   29.7778   45.1088   -9.3383 C   0  0  0  0  0  0  0  0  0  0  0  0
   29.9318   45.6729   -7.9086 C   0  0  0  0  0  0  0  0  0  0  0  0
   28.6300   45.7971   -7.2154 N   0  0  0  0  0  0  0  0  0  0  0  0
   27.8340   46.8590   -7.5148 C   0  0  0  0  0  0  0  0  0  0  0  0
   28.2353   47.8709   -8.0887 O   0  0  0  0  0  0  0  0  0  0  0  0
   26.3621   46.7214   -7.2760 C   0  0  0  0  0  0  0  0  0  0  0  0
   25.6750   47.5824   -6.3997 C   0  0  0  0  0  0  0  0  0  0  0  0
   24.2904   47.4131   -6.1786 C   0  0  0  0  0  0  0  0  0  0  0  0
   23.5982   46.3732   -6.8488 C   0  0  0  0  0  0  0  0  0  0  0  0
   24.2811   45.5186   -7.7442 C   0  0  0  0  0  0  0  0  0  0  0  0
   25.6533   45.7366   -7.9784 C   0  0  0  0  0  0  0  0  0  0  0  0
   23.5714   44.4242   -8.4841 C   0  0  0  0  0  0  0  0  0  0  0  0
   22.4285   44.5768   -8.9116 O   0  0  0  0  0  0  0  0  0  0  0  0
   24.2952   43.3015   -8.6643 N   0  0  0  0  0  0  0  0  0  0  0  0
   24.0318   42.2622   -9.6601 C   0  0  1  0  0  0  0  0  0  0  0  0
   25.3593   41.6672  -10.1977 C   0  0  0  0  0  0  0  0  0  0  0  0
   23.0111   41.2208   -9.1289 C   0  0  1  0  0  0  0  0  0  0  0  0
   22.1764   40.6057  -10.2666 C   0  0  0  0  0  0  0  0  0  0  0  0
   20.8877   40.1628   -9.7542 N   0  0  0  0  0  0  0  0  0  0  0  0
   19.9833   39.6259  -10.7606 C   0  0  0  0  0  0  0  0  0  0  0  0
   18.7838   38.9827  -10.1027 C   0  0  0  0  0  0  0  0  0  0  0  0
   18.9409   37.7501   -9.4447 C   0  0  0  0  0  0  0  0  0  0  0  0
   17.8443   37.1449   -8.8106 C   0  0  0  0  0  0  0  0  0  0  0  0
   16.5908   37.7765   -8.8219 C   0  0  0  0  0  0  0  0  0  0  0  0
   16.4115   39.0189   -9.4782 C   0  0  0  0  0  0  0  0  0  0  0  0
   17.5256   39.6171  -10.1107 C   0  0  0  0  0  0  0  0  0  0  0  0
   15.0505   39.7260   -9.4860 C   0  0  0  0  0  0  0  0  0  0  0  0
   13.9258   38.8966   -8.8390 C   0  0  0  0  0  0  0  0  0  0  0  0
   14.6372   40.1890  -10.8968 C   0  0  0  0  0  0  0  0  0  0  0  0
   23.6548   40.1593   -8.4404 O   0  0  0  0  0  0  0  0  0  0  0  0
   23.5898   48.3034   -5.2524 C   0  0  0  0  0  0  0  0  0  0  0  0
   22.2868   48.3706   -4.9733 N   0  0  0  0  0  0  0  0  0  0  0  0
   22.1603   49.3961   -4.0435 C   0  0  0  0  0  0  0  0  0  0  0  0
   23.4097   49.8978   -3.7957 C   0  0  0  0  0  0  0  0  0  0  0  0
   24.3205   49.2210   -4.5578 O   0  0  0  0  0  0  0  0  0  0  0  0
   28.4745   44.9171   -6.0286 C   0  0  2  0  0  0  0  0  0  0  0  0
   27.1819   44.0773   -5.9331 C   0  0  0  0  0  0  0  0  0  0  0  0
   28.7955   45.6586   -4.7380 C   0  0  0  0  0  0  0  0  0  0  0  0
   27.7844   46.3014   -3.9875 C   0  0  0  0  0  0  0  0  0  0  0  0
   28.1127   47.0396   -2.8391 C   0  0  0  0  0  0  0  0  0  0  0  0
   29.4516   47.1331   -2.4240 C   0  0  0  0  0  0  0  0  0  0  0  0
   30.4598   46.4765   -3.1538 C   0  0  0  0  0  0  0  0  0  0  0  0
   30.1350   45.7479   -4.3110 C   0  0  0  0  0  0  0  0  0  0  0  0
   26.4290   43.5208  -10.0360 H   0  0  0  0  0  0  0  0  0  0  0  0
   23.5587   42.7769  -10.4964 H   0  0  0  0  0  0  0  0  0  0  0  0
   22.3385   41.7216   -8.4301 H   0  0  0  0  0  0  0  0  0  0  0  0
   29.2422   44.1501   -6.0995 H   0  0  0  0  0  0  0  0  0  0  0  0
   25.7877   42.5488  -12.8392 H   0  0  0  0  0  0  0  0  0  0  0  0
   26.6075   44.0531  -12.4577 H   0  0  0  0  0  0  0  0  0  0  0  0
   24.9426   43.8288  -11.9743 H   0  0  0  0  0  0  0  0  0  0  0  0
   27.9592   41.4112  -10.0484 H   0  0  0  0  0  0  0  0  0  0  0  0
   27.8731   41.5367  -11.7821 H   0  0  0  0  0  0  0  0  0  0  0  0
   29.8285   42.7641  -11.2088 H   0  0  0  0  0  0  0  0  0  0  0  0
   28.6487   44.0128  -11.4627 H   0  0  0  0  0  0  0  0  0  0  0  0
   28.2535   43.6865   -8.8092 H   0  0  0  0  0  0  0  0  0  0  0  0
   29.8473   42.9989   -8.8717 H   0  0  0  0  0  0  0  0  0  0  0  0
   30.7534   45.0966   -9.8257 H   0  0  0  0  0  0  0  0  0  0  0  0
   29.1567   45.7862   -9.9290 H   0  0  0  0  0  0  0  0  0  0  0  0
   30.6378   45.0515   -7.3570 H   0  0  0  0  0  0  0  0  0  0  0  0
   30.4258   46.6444   -7.9580 H   0  0  0  0  0  0  0  0  0  0  0  0
   26.2232   48.3616   -5.8846 H   0  0  0  0  0  0  0  0  0  0  0  0
   22.5397   46.2329   -6.6775 H   0  0  0  0  0  0  0  0  0  0  0  0
   26.1910   45.1164   -8.6775 H   0  0  0  0  0  0  0  0  0  0  0  0
   25.1847   43.2477   -8.1905 H   0  0  0  0  0  0  0  0  0  0  0  0
   25.1460   40.9249  -10.9657 H   0  0  0  0  0  0  0  0  0  0  0  0
   25.8348   41.1119   -9.3902 H   0  0  0  0  0  0  0  0  0  0  0  0
   21.9990   41.3505  -11.0434 H   0  0  0  0  0  0  0  0  0  0  0  0
   22.7139   39.7877  -10.7455 H   0  0  0  0  0  0  0  0  0  0  0  0
   21.0190   39.4927   -9.0025 H   0  0  0  0  0  0  0  0  0  0  0  0
   19.6635   40.4108  -11.4489 H   0  0  0  0  0  0  0  0  0  0  0  0
   20.4875   38.8678  -11.3604 H   0  0  0  0  0  0  0  0  0  0  0  0
   19.9110   37.2779   -9.4151 H   0  0  0  0  0  0  0  0  0  0  0  0
   17.9649   36.2073   -8.2899 H   0  0  0  0  0  0  0  0  0  0  0  0
   15.7843   37.2967   -8.2895 H   0  0  0  0  0  0  0  0  0  0  0  0
   17.4241   40.5764  -10.5949 H   0  0  0  0  0  0  0  0  0  0  0  0
   15.1686   40.6242   -8.8766 H   0  0  0  0  0  0  0  0  0  0  0  0
   14.0872   38.7803   -7.7663 H   0  0  0  0  0  0  0  0  0  0  0  0
   13.8637   37.9010   -9.2750 H   0  0  0  0  0  0  0  0  0  0  0  0
   12.9451   39.3501   -8.9731 H   0  0  0  0  0  0  0  0  0  0  0  0
   15.3436   40.9100  -11.3085 H   0  0  0  0  0  0  0  0  0  0  0  0
   13.6616   40.6785  -10.8726 H   0  0  0  0  0  0  0  0  0  0  0  0
   14.5754   39.3517  -11.5903 H   0  0  0  0  0  0  0  0  0  0  0  0
   24.0786   39.5855   -9.0716 H   0  0  0  0  0  0  0  0  0  0  0  0
   21.2042   49.6800   -3.6332 H   0  0  0  0  0  0  0  0  0  0  0  0
   23.7933   50.6753   -3.1539 H   0  0  0  0  0  0  0  0  0  0  0  0
   27.2613   43.3535   -5.1232 H   0  0  0  0  0  0  0  0  0  0  0  0
   27.0038   43.5129   -6.8488 H   0  0  0  0  0  0  0  0  0  0  0  0
   26.2889   44.6581   -5.7134 H   0  0  0  0  0  0  0  0  0  0  0  0
   26.7499   46.2468   -4.2908 H   0  0  0  0  0  0  0  0  0  0  0  0
   27.3355   47.5416   -2.2817 H   0  0  0  0  0  0  0  0  0  0  0  0
   29.7088   47.7122   -1.5495 H   0  0  0  0  0  0  0  0  0  0  0  0
   31.4911   46.5510   -2.8408 H   0  0  0  0  0  0  0  0  0  0  0  0
   30.9270   45.2760   -4.8714 H   0  0  0  0  0  0  0  0  0  0  0  0
  1  2  1  0  0  0  0
  1 53  1  0  0  0  0
  1 54  1  0  0  0  0
  1 55  1  0  0  0  0
  2 49  1  1  0  0  0
  2 21  1  0  0  0  0
  2  3  1  0  0  0  0
  3  4  1  0  0  0  0
  3 56  1  0  0  0  0
  3 57  1  0  0  0  0
  4  5  1  0  0  0  0
  4 58  1  0  0  0  0
  4 59  1  0  0  0  0
  5  6  1  0  0  0  0
  5 60  1  0  0  0  0
  5 61  1  0  0  0  0
  6  7  1  0  0  0  0
  6 62  1  0  0  0  0
  6 63  1  0  0  0  0
  7  8  1  0  0  0  0
  7 64  1  0  0  0  0
  7 65  1  0  0  0  0
  8  9  1  0  0  0  0
  8 41  1  0  0  0  0
  9 10  2  0  0  0  0
  9 11  1  0  0  0  0
 11 16  1  0  0  0  0
 11 12  2  0  0  0  0
 12 13  1  0  0  0  0
 12 66  1  0  0  0  0
 13 14  2  0  0  0  0
 13 36  1  0  0  0  0
 14 15  1  0  0  0  0
 14 67  1  0  0  0  0
 15 16  2  0  0  0  0
 15 17  1  0  0  0  0
 16 68  1  0  0  0  0
 17 18  2  0  0  0  0
 17 19  1  0  0  0  0
 19 20  1  0  0  0  0
 19 69  1  0  0  0  0
 20 50  1  6  0  0  0
 20 21  1  0  0  0  0
 20 22  1  0  0  0  0
 21 70  1  0  0  0  0
 21 71  1  0  0  0  0
 22 51  1  1  0  0  0
 22 23  1  0  0  0  0
 22 35  1  0  0  0  0
 23 24  1  0  0  0  0
 23 72  1  0  0  0  0
 23 73  1  0  0  0  0
 24 25  1  0  0  0  0
 24 74  1  0  0  0  0
 25 26  1  0  0  0  0
 25 75  1  0  0  0  0
 25 76  1  0  0  0  0
 26 31  1  0  0  0  0
 26 27  2  0  0  0  0
 27 28  1  0  0  0  0
 27 77  1  0  0  0  0
 28 29  2  0  0  0  0
 28 78  1  0  0  0  0
 29 30  1  0  0  0  0
 29 79  1  0  0  0  0
 30 31  2  0  0  0  0
 30 32  1  0  0  0  0
 31 80  1  0  0  0  0
 32 33  1  0  0  0  0
 32 34  1  0  0  0  0
 32 81  1  0  0  0  0
 33 82  1  0  0  0  0
 33 83  1  0  0  0  0
 33 84  1  0  0  0  0
 34 85  1  0  0  0  0
 34 86  1  0  0  0  0
 34 87  1  0  0  0  0
 35 88  1  0  0  0  0
 36 40  1  0  0  0  0
 36 37  2  0  0  0  0
 37 38  1  0  0  0  0
 38 39  2  0  0  0  0
 38 89  1  0  0  0  0
 39 40  1  0  0  0  0
 39 90  1  0  0  0  0
 41 52  1  6  0  0  0
 41 42  1  0  0  0  0
 41 43  1  0  0  0  0
 42 91  1  0  0  0  0
 42 92  1  0  0  0  0
 42 93  1  0  0  0  0
 43 48  1  0  0  0  0
 43 44  2  0  0  0  0
 44 45  1  0  0  0  0
 44 94  1  0  0  0  0
 45 46  2  0  0  0  0
 45 95  1  0  0  0  0
 46 47  1  0  0  0  0
 46 96  1  0  0  0  0
 47 48  2  0  0  0  0
 47 97  1  0  0  0  0
 48 98  1  0  0  0  0
M  END
>  <s_m_source_file>
BACE_7.smi

>  <i_m_source_file_index>
1

>  <i_lp_mmshare_version>
42013

>  <i_f3d_flags>
0

>  <s_epik_input>
W2NIXTFbY0hdW2NIXVtjSF1bY0hdYzFbQ0BASF0oW0NIM10pTihDMj1PKVtDSDJdW0NIMl1bQ0gyXVtDSDJdW0NIMl1bQ0BASF0oW0NIM10pW0NIMl1bQ0BIXShbTkhdQyg9TyljKFtjSF0zKVtjSF1jKFtjSF1jMjMpLWM0bltjSF1bY0hdbzQpW0NASF0oW09IXSlbQ0gyXVtOSF1bQ0gyXWM1W2NIXVtjSF1bY0hdYyhbY0hdNSlbQ0hdKFtDSDNdKVtDSDNd

>  <s_epik_cmdline>
J2VwaWtfcHl0aG9uJywgJy1waCcsICc3LjAnLCAnLXRuJywgJzgnLCAnLW1hJywgJzIwMCcsICctaW1hZScsICc8aW5maWxlLm1hZT4nLCAnLW9tYWUnLCAnPG91dGZpbGUubWFlPic=

>  <r_epik_Ionization_Penalty>
2.1294

>  <r_epik_Ionization_Penalty_Charging>
0

>  <r_epik_Ionization_Penalty_Neutral>
2.1294

>  <r_epik_State_Penalty>
2.2676

>  <r_epik_Charging_Adjusted_Penalty>
2.26762

>  <i_epik_Tot_Q>
0

>  <i_epik_Tot_abs_Q>
0

>  <s_lp_Force_Field>
OPLS_2005

>  <r_lp_Energy>
63.2316

>  <b_lp_Chiralities_Consistent>
1

>  <s_lp_Variant>
BACE_7.smi:1-2

>  <chiral flag>
1

>  <version>
0

>  <r_i_glide_lipo>
-0.803458

>  <r_i_glide_hbond>
-0.676623

>  <r_i_glide_metal>
-0

>  <r_i_glide_rewards>
-9.07933e-06

>  <r_i_glide_erotb>
0.249819

>  <r_i_glide_esite>
-0.00445028

>  <s_i_glide_gridfile>
second_dock_grid_2

>  <i_i_glide_lignum>
15

>  <i_i_glide_rotatable_bonds>
10

>  <r_i_docking_score>
1.54518

>  <r_i_glide_ligand_efficiency>
0.0321912

>  <r_i_glide_ligand_efficiency_sa>
0.116991

>  <r_i_glide_ligand_efficiency_ln>
0.317207

>  <r_glide_XP_GScore>
-0.722423

>  <r_i_glide_gscore>
-0.722423

>  <r_i_glide_evdw>
-46.3369

>  <r_i_glide_ecoul>
-5.40894

>  <r_i_glide_energy>
-51.7459

>  <r_i_glide_einternal>
4.40786

>  <r_i_glide_emodel>
-71.7135

>  <r_glide_XP_HBond>
-1.2054

>  <i_i_glide_confnum>
1

>  <i_i_glide_posenum>
13

>  <r_i_glide_eff_state_penalty>
2.2676

>  <i_glide_XP_PoseRank>
2

>  <chiral flag>
1

$$$$
