BACE_2.smi:1
 OpenBabel10031817133D
Structure written by MMmdl.
 96 98  0  0  1  0  0  0  0  0999 V2000
   19.7545   39.2436   -7.9415 C   0  0  0  0  0  0  0  0  0  0  0  0
   19.9276   39.4886   -6.5654 C   0  0  0  0  0  0  0  0  0  0  0  0
   20.9311   40.3740   -6.1287 C   0  0  0  0  0  0  0  0  0  0  0  0
   21.1187   40.6392   -4.6417 C   0  0  0  0  0  0  0  0  0  0  0  0
   22.4212   40.0206   -4.1036 C   0  0  0  0  0  0  0  0  0  0  0  0
   21.0123   42.1368   -4.3032 C   0  0  0  0  0  0  0  0  0  0  0  0
   21.7644   41.0101   -7.0684 C   0  0  0  0  0  0  0  0  0  0  0  0
   21.5945   40.7653   -8.4468 C   0  0  0  0  0  0  0  0  0  0  0  0
   20.5758   39.8842   -8.8905 C   0  0  0  0  0  0  0  0  0  0  0  0
   22.5096   41.4460   -9.4484 C   0  0  2  0  0  0  0  0  0  0  0  0
   22.4062   40.7994  -10.8322 C   0  0  0  0  0  0  0  0  0  0  0  0
   20.9382   40.5123  -11.1640 C   0  0  0  0  0  0  0  0  0  0  0  0
   20.3724   39.6019  -10.2232 O   0  0  0  0  0  0  0  0  0  0  0  0
   20.1256   41.8039  -11.1782 C   0  0  0  0  0  0  0  0  0  0  0  0
   20.8253   39.9044  -12.5592 C   0  0  0  0  0  0  0  0  0  0  0  0
   23.9010   41.4132   -8.9721 N   0  3  0  0  0  0  0  0  0  0  0  0
   24.5754   42.7195   -8.7722 C   0  0  0  0  0  0  0  0  0  0  0  0
   23.7860   43.6867   -7.8554 C   0  0  1  0  0  0  0  0  0  0  0  0
   23.3234   42.9731   -6.7232 O   0  0  0  0  0  0  0  0  0  0  0  0
   24.6242   44.9180   -7.3938 C   0  0  1  0  0  0  0  0  0  0  0  0
   23.7773   45.8780   -6.6743 N   0  0  0  0  0  0  0  0  0  0  0  0
   23.8649   47.2077   -6.6783 C   0  0  0  0  0  0  0  0  0  0  0  0
   24.7534   47.8161   -7.2516 O   0  0  0  0  0  0  0  0  0  0  0  0
   22.7429   47.9538   -5.9215 C   0  0  2  0  0  0  0  0  0  0  0  0
   21.7630   48.6101   -6.8898 C   0  0  0  0  0  0  0  0  0  0  0  0
   25.8791   44.5613   -6.5431 C   0  0  0  0  0  0  0  0  0  0  0  0
   27.1484   45.3418   -6.9446 C   0  0  2  0  0  0  0  0  0  0  0  0
   27.4954   44.9882   -8.3879 C   0  0  0  0  0  0  0  0  0  0  0  0
   28.3816   45.0495   -6.0626 C   0  0  0  0  0  0  0  0  0  0  0  0
   28.3021   45.5717   -4.6110 C   0  0  0  0  0  0  0  0  0  0  0  0
   28.1300   47.0993   -4.5095 C   0  0  0  0  0  0  0  0  0  0  0  0
   28.2158   47.6328   -3.0663 C   0  0  0  0  0  0  0  0  0  0  0  0
   28.0514   49.1658   -2.9612 C   0  0  0  0  0  0  0  0  0  0  0  0
   26.6494   49.6991   -3.3271 C   0  0  0  0  0  0  0  0  0  0  0  0
   25.5685   49.3971   -2.2677 C   0  0  0  0  0  0  0  0  0  0  0  0
   24.1268   49.6659   -2.7623 C   0  0  0  0  0  0  0  0  0  0  0  0
   23.5747   48.5691   -3.6801 C   0  0  0  0  0  0  0  0  0  0  0  0
   23.4148   47.4438   -3.2370 O   0  0  0  0  0  0  0  0  0  0  0  0
   23.2805   48.9217   -4.9408 N   0  0  0  0  0  0  0  0  0  0  0  0
   23.5374   50.2904   -5.3412 C   0  0  0  0  0  0  0  0  0  0  0  0
   22.2201   42.4950   -9.5097 H   0  0  0  0  0  0  0  0  0  0  0  0
   22.9151   44.0399   -8.4092 H   0  0  0  0  0  0  0  0  0  0  0  0
   24.9734   45.4165   -8.2980 H   0  0  0  0  0  0  0  0  0  0  0  0
   22.1625   47.2031   -5.3850 H   0  0  0  0  0  0  0  0  0  0  0  0
   26.9480   46.4132   -6.9580 H   0  0  0  0  0  0  0  0  0  0  0  0
   18.9836   38.5623   -8.2699 H   0  0  0  0  0  0  0  0  0  0  0  0
   19.2904   38.9964   -5.8456 H   0  0  0  0  0  0  0  0  0  0  0  0
   20.3012   40.1447   -4.1154 H   0  0  0  0  0  0  0  0  0  0  0  0
   22.4540   38.9474   -4.2949 H   0  0  0  0  0  0  0  0  0  0  0  0
   22.5042   40.1599   -3.0252 H   0  0  0  0  0  0  0  0  0  0  0  0
   23.3055   40.4669   -4.5591 H   0  0  0  0  0  0  0  0  0  0  0  0
   20.0577   42.5469   -4.6346 H   0  0  0  0  0  0  0  0  0  0  0  0
   21.8055   42.7201   -4.7715 H   0  0  0  0  0  0  0  0  0  0  0  0
   21.0790   42.3005   -3.2271 H   0  0  0  0  0  0  0  0  0  0  0  0
   22.5366   41.6839   -6.7275 H   0  0  0  0  0  0  0  0  0  0  0  0
   22.8617   41.4402  -11.5871 H   0  0  0  0  0  0  0  0  0  0  0  0
   22.9601   39.8607  -10.8425 H   0  0  0  0  0  0  0  0  0  0  0  0
   20.5149   42.5078  -11.9147 H   0  0  0  0  0  0  0  0  0  0  0  0
   20.1237   42.3117  -10.2141 H   0  0  0  0  0  0  0  0  0  0  0  0
   19.0834   41.6092  -11.4341 H   0  0  0  0  0  0  0  0  0  0  0  0
   21.2496   40.5626  -13.3184 H   0  0  0  0  0  0  0  0  0  0  0  0
   19.7849   39.7194  -12.8292 H   0  0  0  0  0  0  0  0  0  0  0  0
   21.3480   38.9493  -12.6227 H   0  0  0  0  0  0  0  0  0  0  0  0
   23.8852   40.9508   -8.0743 H   0  0  0  0  0  0  0  0  0  0  0  0
   25.6077   42.5856   -8.4457 H   0  0  0  0  0  0  0  0  0  0  0  0
   24.6346   43.1562   -9.7695 H   0  0  0  0  0  0  0  0  0  0  0  0
   24.0721   42.6855   -6.2235 H   0  0  0  0  0  0  0  0  0  0  0  0
   23.0030   45.4865   -6.1572 H   0  0  0  0  0  0  0  0  0  0  0  0
   21.3515   47.8829   -7.5911 H   0  0  0  0  0  0  0  0  0  0  0  0
   22.2339   49.4010   -7.4747 H   0  0  0  0  0  0  0  0  0  0  0  0
   20.9201   49.0537   -6.3587 H   0  0  0  0  0  0  0  0  0  0  0  0
   25.6617   44.6913   -5.4829 H   0  0  0  0  0  0  0  0  0  0  0  0
   26.0867   43.4978   -6.6610 H   0  0  0  0  0  0  0  0  0  0  0  0
   28.3984   45.4983   -8.7221 H   0  0  0  0  0  0  0  0  0  0  0  0
   26.7046   45.2779   -9.0788 H   0  0  0  0  0  0  0  0  0  0  0  0
   27.6624   43.9172   -8.5087 H   0  0  0  0  0  0  0  0  0  0  0  0
   28.5389   43.9714   -6.0330 H   0  0  0  0  0  0  0  0  0  0  0  0
   29.2718   45.4560   -6.5425 H   0  0  0  0  0  0  0  0  0  0  0  0
   29.1860   45.2633   -4.0526 H   0  0  0  0  0  0  0  0  0  0  0  0
   27.4607   45.0848   -4.1180 H   0  0  0  0  0  0  0  0  0  0  0  0
   28.8853   47.5931   -5.1209 H   0  0  0  0  0  0  0  0  0  0  0  0
   27.1648   47.3695   -4.9378 H   0  0  0  0  0  0  0  0  0  0  0  0
   29.1857   47.3605   -2.6501 H   0  0  0  0  0  0  0  0  0  0  0  0
   27.4793   47.1291   -2.4402 H   0  0  0  0  0  0  0  0  0  0  0  0
   28.3036   49.4881   -1.9510 H   0  0  0  0  0  0  0  0  0  0  0  0
   28.7906   49.6409   -3.6062 H   0  0  0  0  0  0  0  0  0  0  0  0
   26.3485   49.3144   -4.3016 H   0  0  0  0  0  0  0  0  0  0  0  0
   26.7073   50.7795   -3.4589 H   0  0  0  0  0  0  0  0  0  0  0  0
   25.6475   48.3699   -1.9117 H   0  0  0  0  0  0  0  0  0  0  0  0
   25.7655   50.0150   -1.3916 H   0  0  0  0  0  0  0  0  0  0  0  0
   24.0640   50.6435   -3.2403 H   0  0  0  0  0  0  0  0  0  0  0  0
   23.4519   49.7212   -1.9083 H   0  0  0  0  0  0  0  0  0  0  0  0
   23.1524   50.5343   -6.3294 H   0  0  0  0  0  0  0  0  0  0  0  0
   24.6069   50.5038   -5.3514 H   0  0  0  0  0  0  0  0  0  0  0  0
   23.0443   50.9944   -4.6695 H   0  0  0  0  0  0  0  0  0  0  0  0
   24.4547   40.8510   -9.6024 H   0  0  0  0  0  0  0  0  0  0  0  0
  1  9  1  0  0  0  0
  1  2  2  0  0  0  0
  1 46  1  0  0  0  0
  2  3  1  0  0  0  0
  2 47  1  0  0  0  0
  3  4  1  0  0  0  0
  3  7  2  0  0  0  0
  4  5  1  0  0  0  0
  4  6  1  0  0  0  0
  4 48  1  0  0  0  0
  5 49  1  0  0  0  0
  5 50  1  0  0  0  0
  5 51  1  0  0  0  0
  6 52  1  0  0  0  0
  6 53  1  0  0  0  0
  6 54  1  0  0  0  0
  7  8  1  0  0  0  0
  7 55  1  0  0  0  0
  8  9  2  0  0  0  0
  8 10  1  0  0  0  0
  9 13  1  0  0  0  0
 10 41  1  6  0  0  0
 10 11  1  0  0  0  0
 10 16  1  0  0  0  0
 11 12  1  0  0  0  0
 11 56  1  0  0  0  0
 11 57  1  0  0  0  0
 12 13  1  0  0  0  0
 12 14  1  0  0  0  0
 12 15  1  0  0  0  0
 14 58  1  0  0  0  0
 14 59  1  0  0  0  0
 14 60  1  0  0  0  0
 15 61  1  0  0  0  0
 15 62  1  0  0  0  0
 15 63  1  0  0  0  0
 16 17  1  0  0  0  0
 16 64  1  0  0  0  0
 16 96  1  0  0  0  0
 17 18  1  0  0  0  0
 17 65  1  0  0  0  0
 17 66  1  0  0  0  0
 18 42  1  6  0  0  0
 18 19  1  0  0  0  0
 18 20  1  0  0  0  0
 19 67  1  0  0  0  0
 20 43  1  6  0  0  0
 20 21  1  0  0  0  0
 20 26  1  0  0  0  0
 21 22  1  0  0  0  0
 21 68  1  0  0  0  0
 22 23  2  0  0  0  0
 22 24  1  0  0  0  0
 24 44  1  1  0  0  0
 24 39  1  0  0  0  0
 24 25  1  0  0  0  0
 25 69  1  0  0  0  0
 25 70  1  0  0  0  0
 25 71  1  0  0  0  0
 26 27  1  0  0  0  0
 26 72  1  0  0  0  0
 26 73  1  0  0  0  0
 27 45  1  1  0  0  0
 27 28  1  0  0  0  0
 27 29  1  0  0  0  0
 28 74  1  0  0  0  0
 28 75  1  0  0  0  0
 28 76  1  0  0  0  0
 29 30  1  0  0  0  0
 29 77  1  0  0  0  0
 29 78  1  0  0  0  0
 30 31  1  0  0  0  0
 30 79  1  0  0  0  0
 30 80  1  0  0  0  0
 31 32  1  0  0  0  0
 31 81  1  0  0  0  0
 31 82  1  0  0  0  0
 32 33  1  0  0  0  0
 32 83  1  0  0  0  0
 32 84  1  0  0  0  0
 33 34  1  0  0  0  0
 33 85  1  0  0  0  0
 33 86  1  0  0  0  0
 34 35  1  0  0  0  0
 34 87  1  0  0  0  0
 34 88  1  0  0  0  0
 35 36  1  0  0  0  0
 35 89  1  0  0  0  0
 35 90  1  0  0  0  0
 36 37  1  0  0  0  0
 36 91  1  0  0  0  0
 36 92  1  0  0  0  0
 37 38  2  0  0  0  0
 37 39  1  0  0  0  0
 39 40  1  0  0  0  0
 40 93  1  0  0  0  0
 40 94  1  0  0  0  0
 40 95  1  0  0  0  0
M  CHG  1  16   1
M  END
>  <s_m_source_file>
BACE_2.smi

>  <i_m_source_file_index>
1

>  <i_lp_mmshare_version>
42013

>  <i_f3d_flags>
0

>  <s_epik_input>
W0NIM11bQ0hdKFtDSDNdKWMoW2NIXTEpW2NIXVtjSF1jKGMxMilPQyhbQ0gzXSkoW0NIM10pW0NIMl1bQ0BASF0yW05IXVtDSDJdW0NAQEhdKFtPSF0pW0NASF0zW05IXUMoPU8pW0NASF0oW0NIM10pTihbQ0gzXSlDKD1PKVtDSDJdW0NIMl1bQ0gyXVtDSDJdW0NIMl1bQ0gyXVtDSDJdW0NIMl1bQ0BIXShbQ0gyXTMpW0NIM10=

>  <s_epik_cmdline>
J2VwaWtfcHl0aG9uJywgJy1waCcsICc3LjAnLCAnLXRuJywgJzgnLCAnLW1hJywgJzIwMCcsICctaW1hZScsICc8aW5maWxlLm1hZT4nLCAnLW9tYWUnLCAnPG91dGZpbGUubWFlPic=

>  <r_lp_tautomer_probability>
1

>  <r_epik_Ionization_Penalty>
0.0187

>  <r_epik_Ionization_Penalty_Charging>
0.0187

>  <r_epik_Ionization_Penalty_Neutral>
0

>  <r_epik_State_Penalty>
0.0149

>  <r_epik_Charging_Adjusted_Penalty>
0.0336543

>  <i_epik_Tot_Q>
1

>  <i_epik_Tot_abs_Q>
1

>  <s_lp_Force_Field>
OPLS_2005

>  <r_lp_Energy>
39.6981

>  <b_lp_Chiralities_Consistent>
1

>  <s_lp_Variant>
BACE_2.smi:1-1

>  <chiral flag>
1

>  <version>
0

>  <r_i_glide_lipo>
-1.16718

>  <r_i_glide_hbond>
-0.864

>  <r_i_glide_metal>
-0

>  <r_i_glide_rewards>
-0.0224461

>  <r_i_glide_erotb>
0.187911

>  <r_i_glide_esite>
-0.0353584

>  <s_i_glide_gridfile>
second_dock_grid_2

>  <i_i_glide_lignum>
2

>  <i_i_glide_rotatable_bonds>
6

>  <r_i_docking_score>
-1.37176

>  <r_i_glide_ligand_efficiency>
-0.034294

>  <r_i_glide_ligand_efficiency_sa>
-0.117284

>  <r_i_glide_ligand_efficiency_ln>
-0.292556

>  <r_glide_XP_GScore>
-1.38666

>  <r_i_glide_gscore>
-1.38666

>  <r_i_glide_evdw>
-35.3757

>  <r_i_glide_ecoul>
-4.51944

>  <r_i_glide_energy>
-39.8951

>  <r_i_glide_einternal>
4.87455

>  <r_i_glide_emodel>
-55.6277

>  <r_glide_XP_HBond>
-0.7

>  <i_i_glide_confnum>
1

>  <i_i_glide_posenum>
8

>  <r_i_glide_eff_state_penalty>
0.0149

>  <i_glide_XP_PoseRank>
3

>  <chiral flag>
1

$$$$
