BACE_4.smi:1
 OpenBabel10031817133D
Structure written by MMmdl.
 89 91  0  0  1  0  0  0  0  0999 V2000
   22.6721   44.4217   -7.5549 C   0  0  0  0  0  0  0  0  0  0  0  0
   22.2113   44.3052   -6.1047 C   0  0  2  0  0  0  0  0  0  0  0  0
   23.3346   44.8038   -5.1749 C   0  0  0  0  0  0  0  0  0  0  0  0
   23.6981   46.2833   -5.4146 C   0  0  0  0  0  0  0  0  0  0  0  0
   22.6776   47.2730   -4.8124 C   0  0  0  0  0  0  0  0  0  0  0  0
   22.8624   48.7369   -5.2661 C   0  0  0  0  0  0  0  0  0  0  0  0
   22.6205   49.0066   -6.7713 C   0  0  0  0  0  0  0  0  0  0  0  0
   21.2843   48.4825   -7.3426 C   0  0  0  0  0  0  0  0  0  0  0  0
   20.0272   49.1044   -6.6952 O   0  0  0  0  0  0  0  0  0  0  0  0
   18.6925   48.5126   -7.2159 C   0  0  0  0  0  0  0  0  0  0  0  0
   18.4369   47.0569   -6.8029 C   0  0  0  0  0  0  0  0  0  0  0  0
   18.5887   46.7212   -5.6398 O   0  0  0  0  0  0  0  0  0  0  0  0
   18.0415   46.2182   -7.7728 N   0  0  0  0  0  0  0  0  0  0  0  0
   17.8763   44.7658   -7.5424 C   0  0  2  0  0  0  0  0  0  0  0  0
   19.2015   44.0069   -7.7794 C   0  0  0  0  0  0  0  0  0  0  0  0
   19.8948   44.2355   -8.7569 O   0  0  0  0  0  0  0  0  0  0  0  0
   19.5281   43.0999   -6.8453 N   0  0  0  0  0  0  0  0  0  0  0  0
   20.7447   42.2784   -6.8435 C   0  0  1  0  0  0  0  0  0  0  0  0
   21.7692   42.8540   -5.8212 C   0  0  0  0  0  0  0  0  0  0  0  0
   20.3855   40.7739   -6.6328 C   0  0  1  0  0  0  0  0  0  0  0  0
   21.3008   39.7815   -7.3831 C   0  0  0  0  0  0  0  0  0  0  0  0
   21.7202   40.3039   -8.6860 N   0  0  0  0  0  0  0  0  0  0  0  0
   20.6824   40.3189   -9.7283 C   0  0  0  0  0  0  0  0  0  0  0  0
   21.1371   40.3774  -11.1671 C   0  0  0  0  0  0  0  0  0  0  0  0
   20.5087   41.5905  -10.5240 C   0  0  0  0  0  0  0  0  0  0  0  0
   19.4337   39.5066   -9.4162 C   0  0  0  0  0  0  0  0  0  0  0  0
   19.4608   38.1005   -9.5222 C   0  0  0  0  0  0  0  0  0  0  0  0
   18.3104   37.3445   -9.2394 C   0  0  0  0  0  0  0  0  0  0  0  0
   17.1211   37.9877   -8.8507 C   0  0  0  0  0  0  0  0  0  0  0  0
   17.0554   39.3985   -8.7382 C   0  0  0  0  0  0  0  0  0  0  0  0
   18.2306   40.1413   -9.0290 C   0  0  0  0  0  0  0  0  0  0  0  0
   15.7285   40.0705   -8.3111 C   0  0  0  0  0  0  0  0  0  0  0  0
   14.6270   39.7634   -9.3522 C   0  0  0  0  0  0  0  0  0  0  0  0
   15.2894   39.5314   -6.9297 C   0  0  0  0  0  0  0  0  0  0  0  0
   15.8315   41.6117   -8.1915 C   0  0  0  0  0  0  0  0  0  0  0  0
   20.4599   40.4414   -5.2591 O   0  0  0  0  0  0  0  0  0  0  0  0
   16.8543   44.2225   -8.5369 C   0  0  0  0  0  0  0  0  0  0  0  0
   17.9071   46.7525   -9.1130 C   0  0  0  0  0  0  0  0  0  0  0  0
   21.3456   44.9613   -6.0145 H   0  0  0  0  0  0  0  0  0  0  0  0
   17.4714   44.5521   -6.5532 H   0  0  0  0  0  0  0  0  0  0  0  0
   21.1882   42.3692   -7.8347 H   0  0  0  0  0  0  0  0  0  0  0  0
   19.3589   40.5845   -6.9493 H   0  0  0  0  0  0  0  0  0  0  0  0
   22.9943   45.4351   -7.7935 H   0  0  0  0  0  0  0  0  0  0  0  0
   21.8744   44.1763   -8.2551 H   0  0  0  0  0  0  0  0  0  0  0  0
   23.5097   43.7552   -7.7640 H   0  0  0  0  0  0  0  0  0  0  0  0
   23.0593   44.6549   -4.1309 H   0  0  0  0  0  0  0  0  0  0  0  0
   24.2208   44.1906   -5.3389 H   0  0  0  0  0  0  0  0  0  0  0  0
   23.8104   46.4487   -6.4861 H   0  0  0  0  0  0  0  0  0  0  0  0
   24.6776   46.4893   -4.9832 H   0  0  0  0  0  0  0  0  0  0  0  0
   21.6575   46.9593   -5.0341 H   0  0  0  0  0  0  0  0  0  0  0  0
   22.7518   47.2286   -3.7258 H   0  0  0  0  0  0  0  0  0  0  0  0
   23.8648   49.0725   -5.0005 H   0  0  0  0  0  0  0  0  0  0  0  0
   22.1903   49.3667   -4.6833 H   0  0  0  0  0  0  0  0  0  0  0  0
   22.6904   50.0792   -6.9523 H   0  0  0  0  0  0  0  0  0  0  0  0
   23.4373   48.5704   -7.3463 H   0  0  0  0  0  0  0  0  0  0  0  0
   21.2578   47.3964   -7.2535 H   0  0  0  0  0  0  0  0  0  0  0  0
   21.2617   48.6796   -8.4143 H   0  0  0  0  0  0  0  0  0  0  0  0
   18.6443   48.6188   -8.2996 H   0  0  0  0  0  0  0  0  0  0  0  0
   17.8586   49.0973   -6.8277 H   0  0  0  0  0  0  0  0  0  0  0  0
   18.8869   42.9886   -6.0729 H   0  0  0  0  0  0  0  0  0  0  0  0
   21.3553   42.7865   -4.8151 H   0  0  0  0  0  0  0  0  0  0  0  0
   22.6464   42.2069   -5.8194 H   0  0  0  0  0  0  0  0  0  0  0  0
   20.7591   38.8467   -7.5318 H   0  0  0  0  0  0  0  0  0  0  0  0
   22.1688   39.5323   -6.7734 H   0  0  0  0  0  0  0  0  0  0  0  0
   22.5471   39.8190   -9.0196 H   0  0  0  0  0  0  0  0  0  0  0  0
   22.2101   40.4054  -11.3566 H   0  0  0  0  0  0  0  0  0  0  0  0
   20.5468   39.8348  -11.9055 H   0  0  0  0  0  0  0  0  0  0  0  0
   19.4983   41.8590  -10.8324 H   0  0  0  0  0  0  0  0  0  0  0  0
   21.1616   42.4296  -10.2835 H   0  0  0  0  0  0  0  0  0  0  0  0
   20.3675   37.5945   -9.8210 H   0  0  0  0  0  0  0  0  0  0  0  0
   18.3393   36.2679   -9.3212 H   0  0  0  0  0  0  0  0  0  0  0  0
   16.2567   37.3756   -8.6415 H   0  0  0  0  0  0  0  0  0  0  0  0
   18.2393   41.2178   -8.9655 H   0  0  0  0  0  0  0  0  0  0  0  0
   14.9084   40.1196  -10.3442 H   0  0  0  0  0  0  0  0  0  0  0  0
   13.6842   40.2462   -9.0913 H   0  0  0  0  0  0  0  0  0  0  0  0
   14.4181   38.6970   -9.4370 H   0  0  0  0  0  0  0  0  0  0  0  0
   16.0497   39.7197   -6.1704 H   0  0  0  0  0  0  0  0  0  0  0  0
   15.1003   38.4580   -6.9410 H   0  0  0  0  0  0  0  0  0  0  0  0
   14.3685   40.0066   -6.5891 H   0  0  0  0  0  0  0  0  0  0  0  0
   16.5652   41.9158   -7.4436 H   0  0  0  0  0  0  0  0  0  0  0  0
   14.8800   42.0511   -7.8884 H   0  0  0  0  0  0  0  0  0  0  0  0
   16.0998   42.0786   -9.1402 H   0  0  0  0  0  0  0  0  0  0  0  0
   19.7010   40.7974   -4.8229 H   0  0  0  0  0  0  0  0  0  0  0  0
   16.6791   43.1571   -8.3819 H   0  0  0  0  0  0  0  0  0  0  0  0
   17.1766   44.3552   -9.5702 H   0  0  0  0  0  0  0  0  0  0  0  0
   15.8921   44.7240   -8.4273 H   0  0  0  0  0  0  0  0  0  0  0  0
   17.4286   46.0649   -9.8077 H   0  0  0  0  0  0  0  0  0  0  0  0
   18.8799   47.0107   -9.5332 H   0  0  0  0  0  0  0  0  0  0  0  0
   17.2735   47.6404   -9.1208 H   0  0  0  0  0  0  0  0  0  0  0  0
  1  2  1  0  0  0  0
  1 43  1  0  0  0  0
  1 44  1  0  0  0  0
  1 45  1  0  0  0  0
  2 39  1  1  0  0  0
  2 19  1  0  0  0  0
  2  3  1  0  0  0  0
  3  4  1  0  0  0  0
  3 46  1  0  0  0  0
  3 47  1  0  0  0  0
  4  5  1  0  0  0  0
  4 48  1  0  0  0  0
  4 49  1  0  0  0  0
  5  6  1  0  0  0  0
  5 50  1  0  0  0  0
  5 51  1  0  0  0  0
  6  7  1  0  0  0  0
  6 52  1  0  0  0  0
  6 53  1  0  0  0  0
  7  8  1  0  0  0  0
  7 54  1  0  0  0  0
  7 55  1  0  0  0  0
  8  9  1  0  0  0  0
  8 56  1  0  0  0  0
  8 57  1  0  0  0  0
  9 10  1  0  0  0  0
 10 11  1  0  0  0  0
 10 58  1  0  0  0  0
 10 59  1  0  0  0  0
 11 12  2  0  0  0  0
 11 13  1  0  0  0  0
 13 14  1  0  0  0  0
 13 38  1  0  0  0  0
 14 40  1  1  0  0  0
 14 15  1  0  0  0  0
 14 37  1  0  0  0  0
 15 16  2  0  0  0  0
 15 17  1  0  0  0  0
 17 18  1  0  0  0  0
 17 60  1  0  0  0  0
 18 41  1  6  0  0  0
 18 19  1  0  0  0  0
 18 20  1  0  0  0  0
 19 61  1  0  0  0  0
 19 62  1  0  0  0  0
 20 42  1  6  0  0  0
 20 21  1  0  0  0  0
 20 36  1  0  0  0  0
 21 22  1  0  0  0  0
 21 63  1  0  0  0  0
 21 64  1  0  0  0  0
 22 23  1  0  0  0  0
 22 65  1  0  0  0  0
 23 25  1  0  0  0  0
 23 24  1  0  0  0  0
 23 26  1  0  0  0  0
 24 25  1  0  0  0  0
 24 66  1  0  0  0  0
 24 67  1  0  0  0  0
 25 68  1  0  0  0  0
 25 69  1  0  0  0  0
 26 31  1  0  0  0  0
 26 27  2  0  0  0  0
 27 28  1  0  0  0  0
 27 70  1  0  0  0  0
 28 29  2  0  0  0  0
 28 71  1  0  0  0  0
 29 30  1  0  0  0  0
 29 72  1  0  0  0  0
 30 31  2  0  0  0  0
 30 32  1  0  0  0  0
 31 73  1  0  0  0  0
 32 33  1  0  0  0  0
 32 34  1  0  0  0  0
 32 35  1  0  0  0  0
 33 74  1  0  0  0  0
 33 75  1  0  0  0  0
 33 76  1  0  0  0  0
 34 77  1  0  0  0  0
 34 78  1  0  0  0  0
 34 79  1  0  0  0  0
 35 80  1  0  0  0  0
 35 81  1  0  0  0  0
 35 82  1  0  0  0  0
 36 83  1  0  0  0  0
 37 84  1  0  0  0  0
 37 85  1  0  0  0  0
 37 86  1  0  0  0  0
 38 87  1  0  0  0  0
 38 88  1  0  0  0  0
 38 89  1  0  0  0  0
M  END
>  <s_m_source_file>
BACE_4.smi

>  <i_m_source_file_index>
1

>  <i_lp_mmshare_version>
42013

>  <i_f3d_flags>
0

>  <s_epik_input>
W0NIM11bQ0BASF0xW0NIMl1bQ0gyXVtDSDJdW0NIMl1bQ0gyXVtDSDJdT1tDSDJdQyg9TylOKFtDSDNdKVtDQEBIXShbQ0gzXSlDKD1PKVtOSF1bQ0BASF0oW0NIMl0xKVtDQEhdKFtPSF0pW0NIMl1bTkhdQzIoW0NIMl1bQ0gyXTIpYzNbY0hdW2NIXVtjSF1jKFtjSF0zKUMoW0NIM10pKFtDSDNdKVtDSDNd

>  <s_epik_cmdline>
J2VwaWtfcHl0aG9uJywgJy1waCcsICc3LjAnLCAnLXRuJywgJzgnLCAnLW1hJywgJzIwMCcsICctaW1hZScsICc8aW5maWxlLm1hZT4nLCAnLW9tYWUnLCAnPG91dGZpbGUubWFlPic=

>  <r_epik_Ionization_Penalty>
0.3385

>  <r_epik_Ionization_Penalty_Charging>
0

>  <r_epik_Ionization_Penalty_Neutral>
0.3385

>  <r_epik_State_Penalty>
0.3341

>  <r_epik_Charging_Adjusted_Penalty>
0.334061

>  <i_epik_Tot_Q>
0

>  <i_epik_Tot_abs_Q>
0

>  <s_lp_Force_Field>
OPLS_2005

>  <r_lp_Energy>
57.6864

>  <b_lp_Chiralities_Consistent>
1

>  <s_lp_Variant>
BACE_4.smi:1-1

>  <chiral flag>
1

>  <version>
0

>  <r_i_glide_lipo>
-1.06031

>  <r_i_glide_hbond>
-0.243742

>  <r_i_glide_metal>
-0

>  <r_i_glide_rewards>
0

>  <r_i_glide_erotb>
0.36719

>  <r_i_glide_esite>
-0.00466178

>  <s_i_glide_gridfile>
second_dock_grid_2

>  <i_i_glide_lignum>
6

>  <i_i_glide_rotatable_bonds>
7

>  <r_i_docking_score>
-2.36457

>  <r_i_glide_ligand_efficiency>
-0.0622256

>  <r_i_glide_ligand_efficiency_sa>
-0.209201

>  <r_i_glide_ligand_efficiency_ln>
-0.509871

>  <r_glide_XP_GScore>
-2.69867

>  <r_i_glide_gscore>
-2.69867

>  <r_i_glide_evdw>
-38.9247

>  <r_i_glide_ecoul>
-8.77805

>  <r_i_glide_energy>
-47.7027

>  <r_i_glide_einternal>
4.31858

>  <r_i_glide_emodel>
-67.9562

>  <r_glide_XP_HBond>
-0.990889

>  <i_i_glide_confnum>
1

>  <i_i_glide_posenum>
4

>  <r_i_glide_eff_state_penalty>
0.3341

>  <i_glide_XP_PoseRank>
6

>  <chiral flag>
1

$$$$
