BACE_19.smi:1
 OpenBabel10031817133D
Structure written by MMmdl.
 76 77  0  0  1  0  0  0  0  0999 V2000
   31.6772   43.5492  -10.4254 C   0  0  0  0  0  0  0  0  0  0  0  0
   30.6454   42.4925  -10.8314 C   0  0  0  0  0  0  0  0  0  0  0  0
   30.0037   42.7956  -12.1970 C   0  0  0  0  0  0  0  0  0  0  0  0
   28.9014   41.8004  -12.5989 C   0  0  0  0  0  0  0  0  0  0  0  0
   27.8634   41.6876  -11.5812 N   0  0  0  0  0  0  0  0  0  0  0  0
   26.9074   42.5968  -11.3410 C   0  0  0  0  0  0  0  0  0  0  0  0
   26.7419   43.5810  -12.0628 O   0  0  0  0  0  0  0  0  0  0  0  0
   26.0695   42.3927  -10.0605 C   0  0  2  0  0  0  0  0  0  0  0  0
   25.5603   40.9501   -9.9275 C   0  0  0  0  0  0  0  0  0  0  0  0
   24.9519   43.4469   -9.8700 C   0  0  0  0  0  0  0  0  0  0  0  0
   23.7787   43.4180  -10.8889 C   0  0  1  0  0  0  0  0  0  0  0  0
   22.6048   42.4370  -10.5836 C   0  0  2  0  0  0  0  0  0  0  0  0
   21.4704   42.5389  -11.6399 C   0  0  0  0  0  0  0  0  0  0  0  0
   20.2571   41.5771  -11.5581 C   0  0  1  0  0  0  0  0  0  0  0  0
   20.6791   40.0884  -11.4536 C   0  0  0  0  0  0  0  0  0  0  0  0
   19.5384   39.0640  -11.2606 C   0  0  0  0  0  0  0  0  0  0  0  0
   18.9625   39.0106   -9.8534 C   0  0  0  0  0  0  0  0  0  0  0  0
   17.5651   39.0061   -9.6574 C   0  0  0  0  0  0  0  0  0  0  0  0
   17.0339   39.0346   -8.3547 C   0  0  0  0  0  0  0  0  0  0  0  0
   17.8959   39.0925   -7.2428 C   0  0  0  0  0  0  0  0  0  0  0  0
   19.2942   39.0904   -7.4274 C   0  0  0  0  0  0  0  0  0  0  0  0
   19.8183   38.9945   -8.7312 C   0  0  0  0  0  0  0  0  0  0  0  0
   20.2167   39.1583   -6.2186 C   0  0  0  0  0  0  0  0  0  0  0  0
   21.5306   40.4611   -6.3220 S   0  0  0  0  0  0  0  0  0  0  0  0
   22.1731   40.5540   -5.0041 O   0  0  0  0  0  0  0  0  0  0  0  0
   22.3749   40.2266   -7.5038 O   0  0  0  0  0  0  0  0  0  0  0  0
   20.5640   42.0109   -6.6021 C   0  0  0  0  0  0  0  0  0  0  0  0
   21.4094   43.2614   -6.9682 C   0  0  2  0  0  0  0  0  0  0  0  0
   21.6428   43.4648   -8.4776 C   0  0  0  0  0  0  0  0  0  0  0  0
   21.3893   44.5569   -8.9876 O   0  0  0  0  0  0  0  0  0  0  0  0
   22.1640   42.4444   -9.1791 N   0  0  0  0  0  0  0  0  0  0  0  0
   22.7212   43.4219   -6.1799 C   0  0  0  0  0  0  0  0  0  0  0  0
   19.2218   42.0454  -10.5224 C   0  0  0  0  0  0  0  0  0  0  0  0
   23.2720   44.7337  -11.0266 O   0  0  0  0  0  0  0  0  0  0  0  0
   26.7669   42.5547   -9.2403 H   0  0  0  0  0  0  0  0  0  0  0  0
   24.1761   43.1658  -11.8722 H   0  0  0  0  0  0  0  0  0  0  0  0
   23.0260   41.4460  -10.7066 H   0  0  0  0  0  0  0  0  0  0  0  0
   19.7442   41.6752  -12.5154 H   0  0  0  0  0  0  0  0  0  0  0  0
   20.7875   44.1101   -6.6797 H   0  0  0  0  0  0  0  0  0  0  0  0
   32.0590   43.3517   -9.4249 H   0  0  0  0  0  0  0  0  0  0  0  0
   31.2346   44.5490  -10.4111 H   0  0  0  0  0  0  0  0  0  0  0  0
   32.5218   43.5643  -11.1165 H   0  0  0  0  0  0  0  0  0  0  0  0
   31.1155   41.5109  -10.8577 H   0  0  0  0  0  0  0  0  0  0  0  0
   29.8793   42.4501  -10.0574 H   0  0  0  0  0  0  0  0  0  0  0  0
   29.5870   43.8018  -12.1848 H   0  0  0  0  0  0  0  0  0  0  0  0
   30.7736   42.7993  -12.9681 H   0  0  0  0  0  0  0  0  0  0  0  0
   28.4614   42.0997  -13.5493 H   0  0  0  0  0  0  0  0  0  0  0  0
   29.3302   40.8102  -12.7567 H   0  0  0  0  0  0  0  0  0  0  0  0
   27.9079   40.8693  -10.9855 H   0  0  0  0  0  0  0  0  0  0  0  0
   26.3839   40.2555   -9.7460 H   0  0  0  0  0  0  0  0  0  0  0  0
   25.0483   40.6112  -10.8290 H   0  0  0  0  0  0  0  0  0  0  0  0
   24.8657   40.8455   -9.0921 H   0  0  0  0  0  0  0  0  0  0  0  0
   24.5790   43.3988   -8.8481 H   0  0  0  0  0  0  0  0  0  0  0  0
   25.4302   44.4287   -9.9262 H   0  0  0  0  0  0  0  0  0  0  0  0
   21.0903   43.5624  -11.6762 H   0  0  0  0  0  0  0  0  0  0  0  0
   21.9518   42.3698  -12.6032 H   0  0  0  0  0  0  0  0  0  0  0  0
   21.1922   39.8396  -12.3823 H   0  0  0  0  0  0  0  0  0  0  0  0
   21.4293   39.9482  -10.6804 H   0  0  0  0  0  0  0  0  0  0  0  0
   18.7443   39.2701  -11.9779 H   0  0  0  0  0  0  0  0  0  0  0  0
   19.9133   38.0690  -11.4889 H   0  0  0  0  0  0  0  0  0  0  0  0
   16.8964   38.9924  -10.5044 H   0  0  0  0  0  0  0  0  0  0  0  0
   15.9653   39.0273   -8.2004 H   0  0  0  0  0  0  0  0  0  0  0  0
   17.4691   39.1298   -6.2497 H   0  0  0  0  0  0  0  0  0  0  0  0
   20.8838   38.9339   -8.8747 H   0  0  0  0  0  0  0  0  0  0  0  0
   19.6334   39.3516   -5.3190 H   0  0  0  0  0  0  0  0  0  0  0  0
   20.7092   38.1958   -6.1095 H   0  0  0  0  0  0  0  0  0  0  0  0
   19.7984   41.8132   -7.3495 H   0  0  0  0  0  0  0  0  0  0  0  0
   20.0256   42.1991   -5.6736 H   0  0  0  0  0  0  0  0  0  0  0  0
   22.3225   41.5830   -8.6636 H   0  0  0  0  0  0  0  0  0  0  0  0
   23.1903   44.3851   -6.3846 H   0  0  0  0  0  0  0  0  0  0  0  0
   23.4473   42.6483   -6.4325 H   0  0  0  0  0  0  0  0  0  0  0  0
   22.5390   43.3716   -5.1061 H   0  0  0  0  0  0  0  0  0  0  0  0
   19.5192   41.7754   -9.5146 H   0  0  0  0  0  0  0  0  0  0  0  0
   18.2466   41.5968  -10.7090 H   0  0  0  0  0  0  0  0  0  0  0  0
   19.0836   43.1262  -10.5520 H   0  0  0  0  0  0  0  0  0  0  0  0
   22.6744   44.8803  -10.3017 H   0  0  0  0  0  0  0  0  0  0  0  0
  1  2  1  0  0  0  0
  1 40  1  0  0  0  0
  1 41  1  0  0  0  0
  1 42  1  0  0  0  0
  2  3  1  0  0  0  0
  2 43  1  0  0  0  0
  2 44  1  0  0  0  0
  3  4  1  0  0  0  0
  3 45  1  0  0  0  0
  3 46  1  0  0  0  0
  4  5  1  0  0  0  0
  4 47  1  0  0  0  0
  4 48  1  0  0  0  0
  5  6  1  0  0  0  0
  5 49  1  0  0  0  0
  6  7  2  0  0  0  0
  6  8  1  0  0  0  0
  8 35  1  1  0  0  0
  8  9  1  0  0  0  0
  8 10  1  0  0  0  0
  9 50  1  0  0  0  0
  9 51  1  0  0  0  0
  9 52  1  0  0  0  0
 10 11  1  0  0  0  0
 10 53  1  0  0  0  0
 10 54  1  0  0  0  0
 11 36  1  6  0  0  0
 11 12  1  0  0  0  0
 11 34  1  0  0  0  0
 12 37  1  6  0  0  0
 12 31  1  0  0  0  0
 12 13  1  0  0  0  0
 13 14  1  0  0  0  0
 13 55  1  0  0  0  0
 13 56  1  0  0  0  0
 14 38  1  6  0  0  0
 14 15  1  0  0  0  0
 14 33  1  0  0  0  0
 15 16  1  0  0  0  0
 15 57  1  0  0  0  0
 15 58  1  0  0  0  0
 16 17  1  0  0  0  0
 16 59  1  0  0  0  0
 16 60  1  0  0  0  0
 17 22  1  0  0  0  0
 17 18  2  0  0  0  0
 18 19  1  0  0  0  0
 18 61  1  0  0  0  0
 19 20  2  0  0  0  0
 19 62  1  0  0  0  0
 20 21  1  0  0  0  0
 20 63  1  0  0  0  0
 21 22  2  0  0  0  0
 21 23  1  0  0  0  0
 22 64  1  0  0  0  0
 23 24  1  0  0  0  0
 23 65  1  0  0  0  0
 23 66  1  0  0  0  0
 24 25  2  0  0  0  0
 24 26  2  0  0  0  0
 24 27  1  0  0  0  0
 27 28  1  0  0  0  0
 27 67  1  0  0  0  0
 27 68  1  0  0  0  0
 28 39  1  1  0  0  0
 28 29  1  0  0  0  0
 28 32  1  0  0  0  0
 29 30  2  0  0  0  0
 29 31  1  0  0  0  0
 31 69  1  0  0  0  0
 32 70  1  0  0  0  0
 32 71  1  0  0  0  0
 32 72  1  0  0  0  0
 33 73  1  0  0  0  0
 33 74  1  0  0  0  0
 33 75  1  0  0  0  0
 34 76  1  0  0  0  0
M  END
>  <s_m_source_file>
BACE_19.smi

>  <i_m_source_file_index>
1

>  <i_lp_mmshare_version>
42013

>  <i_f3d_flags>
0

>  <s_epik_input>
W0NIM11bQ0gyXVtDSDJdW0NIMl1bTkhdQyg9TylbQ0BIXShbQ0gzXSlbQ0gyXVtDQEhdKFtPSF0pW0NASF0oW0NIMl1bQ0BIXShbQ0gzXSlbQ0gyXVtDSDJdMSlbTkhdQyg9TylbQ0BIXShbQ0gzXSlbQ0gyXVMoPU8pKD1PKVtDSDJdYyhbY0hdMilbY0hdW2NIXVtjSF1jMTI=

>  <s_epik_cmdline>
J2VwaWtfcHl0aG9uJywgJy1waCcsICc3LjAnLCAnLXRuJywgJzgnLCAnLW1hJywgJzIwMCcsICctaW1hZScsICc8aW5maWxlLm1hZT4nLCAnLW9tYWUnLCAnPG91dGZpbGUubWFlPic=

>  <r_lp_tautomer_probability>
1

>  <r_epik_Ionization_Penalty>
0

>  <r_epik_Ionization_Penalty_Charging>
0

>  <r_epik_Ionization_Penalty_Neutral>
0

>  <r_epik_State_Penalty>
-0

>  <r_epik_Charging_Adjusted_Penalty>
0

>  <i_epik_Tot_Q>
0

>  <i_epik_Tot_abs_Q>
0

>  <s_lp_Force_Field>
OPLS_2005

>  <r_lp_Energy>
20.3216

>  <b_lp_Chiralities_Consistent>
1

>  <s_lp_Variant>
BACE_19.smi:1-1

>  <chiral flag>
1

>  <version>
0

>  <r_i_glide_lipo>
-1.11123

>  <r_i_glide_hbond>
-0.357278

>  <r_i_glide_metal>
-0

>  <r_i_glide_rewards>
-0.0961787

>  <r_i_glide_erotb>
0.582966

>  <r_i_glide_esite>
-0.165645

>  <s_i_glide_gridfile>
second_dock_grid_2

>  <i_i_glide_lignum>
36

>  <i_i_glide_rotatable_bonds>
9

>  <r_i_docking_score>
-3.70463

>  <r_i_glide_ligand_efficiency>
-0.10896

>  <r_i_glide_ligand_efficiency_sa>
-0.352987

>  <r_i_glide_ligand_efficiency_ln>
-0.818457

>  <r_glide_XP_GScore>
-3.70463

>  <r_i_glide_gscore>
-3.70463

>  <r_i_glide_evdw>
-38.0772

>  <r_i_glide_ecoul>
-4.9344

>  <r_i_glide_energy>
-43.0116

>  <r_i_glide_einternal>
6.84367

>  <r_i_glide_emodel>
-55.4444

>  <r_glide_XP_HBond>
-0.585493

>  <i_i_glide_confnum>
1

>  <i_i_glide_posenum>
10

>  <r_i_glide_eff_state_penalty>
-0

>  <i_glide_XP_PoseRank>
5

>  <chiral flag>
1

$$$$
